
OS:Version,
  {cfe3c5a7-01e3-49f2-bde9-d465ee75dff1}, !- Handle
  1.11.5;                                 !- Version Identifier

OS:Site,
  {417f2549-e5fb-4475-adbe-93ffd5abafbf}, !- Handle
  GOLDEN COLORADO,                        !- Name
  39.8,                                   !- Latitude {deg}
  -104.9,                                 !- Longitude {deg}
  -7,                                     !- Time Zone {hr}
  1609,                                   !- Elevation {m}
  Country;                                !- Terrain

OS:Building,
  {1285c6ad-7cc0-4b1b-b9dc-4c9dab257daf}, !- Handle
  Bestest_Geo_EastWest_12_1_0,            !- Name
  ,                                       !- Building Sector Type
  0,                                      !- North Axis {deg}
  ,                                       !- Nominal Floor to Floor Height {m}
  ,                                       !- Space Type Name
  ,                                       !- Default Construction Set Name
  ,                                       !- Default Schedule Set Name
  ,                                       !- Standards Number of Stories
  ,                                       !- Standards Number of Above Ground Stories
  ,                                       !- Standards Building Type
  ,                                       !- Standards Number of Living Units
  ,                                       !- Relocatable
  ;                                       !- Nominal Floor to Ceiling Height {m}

OS:SimulationControl,
  {92f025c4-ec7b-466b-bd3b-ab59270e585a}, !- Handle
  ,                                       !- Do Zone Sizing Calculation
  ,                                       !- Do System Sizing Calculation
  ,                                       !- Do Plant Sizing Calculation
  ,                                       !- Run Simulation for Sizing Periods
  ,                                       !- Run Simulation for Weather File Run Periods
  0.039999999,                            !- Loads Convergence Tolerance Value
  0.0040000002,                           !- Temperature Convergence Tolerance Value {deltaC}
  FullInteriorAndExterior,                !- Solar Distribution
  ,                                       !- Maximum Number of Warmup Days
  6;                                      !- Minimum Number of Warmup Days

OS:ScheduleTypeLimits,
  {71b2a0c8-5a3c-42c8-9e97-f32263cf2d5a}, !- Handle
  Temperature,                            !- Name
  -60,                                    !- Lower Limit Value
  200,                                    !- Upper Limit Value
  Continuous,                             !- Numeric Type
  Temperature;                            !- Unit Type

OS:Surface,
  {4aa882fd-01b8-4cc3-abaf-0b4e9fe52862}, !- Handle
  ZONE SURFACE EAST,                      !- Name
  Wall,                                   !- Surface Type
  ,                                       !- Construction Name
  {719f3feb-3876-4b0d-ad8d-dd66fe87b6a8}, !- Space Name
  Outdoors,                               !- Outside Boundary Condition
  ,                                       !- Outside Boundary Condition Object
  SunExposed,                             !- Sun Exposure
  WindExposed,                            !- Wind Exposure
  0.5,                                    !- View Factor to Ground
  ,                                       !- Number of Vertices
  8, 0, 2.7,                              !- X,Y,Z Vertex 1 {m}
  8, 0, 0,                                !- X,Y,Z Vertex 2 {m}
  8, 6, 0,                                !- X,Y,Z Vertex 3 {m}
  8, 6, 2.7;                              !- X,Y,Z Vertex 4 {m}

OS:ThermalZone,
  {8f63774a-fbf1-467f-806e-36f84a690440}, !- Handle
  ZONE ONE,                  !- Name
  1,                                      !- Multiplier
  2.7,                                    !- Ceiling Height {m}
  129.6,                                  !- Volume {m3}
  ,                                       !- Floor Area {m2}
  ,                                       !- Zone Inside Convection Algorithm
  ,                                       !- Zone Outside Convection Algorithm
  ,                                       !- Zone Conditioning Equipment List Name
  {a2d3b037-6c02-45b7-9b26-c8836afcb8a7}, !- Zone Air Inlet Port List
  {271f2b63-749a-45e3-a29c-60cb87d54602}, !- Zone Air Exhaust Port List
  {af40427a-60a4-4023-9c1d-60f73f927a22}, !- Zone Air Node Name
  ,                                       !- Zone Return Air Node Name
  ,                                       !- Primary Daylighting Control Name
  ,                                       !- Fraction of Zone Controlled by Primary Daylighting Control
  ,                                       !- Secondary Daylighting Control Name
  ,                                       !- Fraction of Zone Controlled by Secondary Daylighting Control
  ,                                       !- Illuminance Map Name
  {6d3f68df-a06c-42dd-96f6-b4c6655aae90}, !- Group Rendering Name
  {28b4c20b-10f6-4216-8301-486a5fdb2cf5}, !- Thermostat Name
  No;                                     !- Use Ideal Air Loads

OS:Node,
  {0166984c-e947-4184-ab3f-2b170d51bda5}, !- Handle
  {211b9dd9-2b6a-46d2-a189-d8670e6e9b32}, !- Name
  {af40427a-60a4-4023-9c1d-60f73f927a22}, !- Inlet Port
  ;                                       !- Outlet Port

OS:Connection,
  {af40427a-60a4-4023-9c1d-60f73f927a22}, !- Handle
  {a3b919ef-842e-4136-9fda-bed4c3865cd3}, !- Name
  {8f63774a-fbf1-467f-806e-36f84a690440}, !- Source Object
  11,                                     !- Outlet Port
  {0166984c-e947-4184-ab3f-2b170d51bda5}, !- Target Object
  2;                                      !- Inlet Port

OS:PortList,
  {a2d3b037-6c02-45b7-9b26-c8836afcb8a7}, !- Handle
  {26d9bdb5-ec28-4623-83ca-eb98b07d4c5a}, !- Name
  {8f63774a-fbf1-467f-806e-36f84a690440}; !- HVAC Component

OS:PortList,
  {271f2b63-749a-45e3-a29c-60cb87d54602}, !- Handle
  {d85ab82e-1790-4091-b910-03bbbcd636fc}, !- Name
  {8f63774a-fbf1-467f-806e-36f84a690440}; !- HVAC Component

OS:Sizing:Zone,
  {cc886a87-4a0c-43d3-ae99-161a64383e6a}, !- Handle
  {8f63774a-fbf1-467f-806e-36f84a690440}, !- Zone or ZoneList Name
  SupplyAirTemperature,                   !- Zone Cooling Design Supply Air Temperature Input Method
  14,                                     !- Zone Cooling Design Supply Air Temperature {C}
  11.11,                                  !- Zone Cooling Design Supply Air Temperature Difference {deltaC}
  SupplyAirTemperature,                   !- Zone Heating Design Supply Air Temperature Input Method
  40,                                     !- Zone Heating Design Supply Air Temperature {C}
  11.11,                                  !- Zone Heating Design Supply Air Temperature Difference {deltaC}
  0.0085,                                 !- Zone Cooling Design Supply Air Humidity Ratio {kg-H2O/kg-air}
  0.008,                                  !- Zone Heating Design Supply Air Humidity Ratio {kg-H2O/kg-air}
  ,                                       !- Zone Heating Sizing Factor
  ,                                       !- Zone Cooling Sizing Factor
  DesignDay,                              !- Cooling Design Air Flow Method
  ,                                       !- Cooling Design Air Flow Rate {m3/s}
  ,                                       !- Cooling Minimum Air Flow per Zone Floor Area {m3/s-m2}
  ,                                       !- Cooling Minimum Air Flow {m3/s}
  ,                                       !- Cooling Minimum Air Flow Fraction
  DesignDay,                              !- Heating Design Air Flow Method
  ,                                       !- Heating Design Air Flow Rate {m3/s}
  ,                                       !- Heating Maximum Air Flow per Zone Floor Area {m3/s-m2}
  ,                                       !- Heating Maximum Air Flow {m3/s}
  ,                                       !- Heating Maximum Air Flow Fraction
  ,                                       !- Design Zone Air Distribution Effectiveness in Cooling Mode
  ,                                       !- Design Zone Air Distribution Effectiveness in Heating Mode
  No,                                     !- Account for Dedicated Outdoor Air System
  NeutralSupplyAir,                       !- Dedicated Outdoor Air System Control Strategy
  autosize,                               !- Dedicated Outdoor Air Low Setpoint Temperature for Design {C}
  autosize;                               !- Dedicated Outdoor Air High Setpoint Temperature for Design {C}

OS:ZoneHVAC:EquipmentList,
  {fbe109d4-6534-4d4a-a330-cd9e516f8783}, !- Handle
  {b258fb12-9d47-4614-ac04-3d9048410066}, !- Name
  {8f63774a-fbf1-467f-806e-36f84a690440}; !- Thermal Zone

OS:Space,
  {719f3feb-3876-4b0d-ad8d-dd66fe87b6a8}, !- Handle
  ZONE ONE Space,                               !- Name
  ,                                       !- Space Type Name
  ,                                       !- Default Construction Set Name
  ,                                       !- Default Schedule Set Name
  0,                                      !- Direction of Relative North {deg}
  0,                                      !- X Origin {m}
  0,                                      !- Y Origin {m}
  0,                                      !- Z Origin {m}
  ,                                       !- Building Story Name
  {8f63774a-fbf1-467f-806e-36f84a690440}, !- Thermal Zone Name
  ,                                       !- Part of Total Floor Area
  ;                                       !- Design Specification Outdoor Air Object Name

OS:ThermostatSetpoint:DualSetpoint,
  {28b4c20b-10f6-4216-8301-486a5fdb2cf5}, !- Handle
  {9deb1f76-3156-476a-a41b-8e67860f5838}, !- Name
  {d3d5af79-e0b4-453e-a1b9-e5ec71c1d6d2}, !- Heating Setpoint Temperature Schedule Name
  {55ed9412-8f47-416b-87f4-7b439aea0e3f}; !- Cooling Setpoint Temperature Schedule Name

OS:Schedule:Year,
  {d3d5af79-e0b4-453e-a1b9-e5ec71c1d6d2}, !- Handle
  Heating Setpoints,                      !- Name
  {71b2a0c8-5a3c-42c8-9e97-f32263cf2d5a}, !- Schedule Type Limits Name
  12,                                     !- Month 1
  31,                                     !- Day 1
  {eafee343-34e5-4fc6-bcea-a388cbdb1576}; !- Week Schedule Until Date 1

OS:Schedule:Week,
  {eafee343-34e5-4fc6-bcea-a388cbdb1576}, !- Handle
  Zone Heating Setpoint All Weeks,        !- Name
  ,                                       !- Schedule Rendering Name
  {7408abf2-ce36-422f-b3bc-f0b74744bea6}, !- Sunday Schedule:Day Name
  {7408abf2-ce36-422f-b3bc-f0b74744bea6}, !- Monday Schedule:Day Name
  {7408abf2-ce36-422f-b3bc-f0b74744bea6}, !- Tuesday Schedule:Day Name
  {7408abf2-ce36-422f-b3bc-f0b74744bea6}, !- Wednesday Schedule:Day Name
  {7408abf2-ce36-422f-b3bc-f0b74744bea6}, !- Thursday Schedule:Day Name
  {7408abf2-ce36-422f-b3bc-f0b74744bea6}, !- Friday Schedule:Day Name
  {7408abf2-ce36-422f-b3bc-f0b74744bea6}, !- Saturday Schedule:Day Name
  {7408abf2-ce36-422f-b3bc-f0b74744bea6}, !- Holiday Schedule:Day Name
  {7408abf2-ce36-422f-b3bc-f0b74744bea6}, !- SummerDesignDay Schedule:Day Name
  {7408abf2-ce36-422f-b3bc-f0b74744bea6}, !- WinterDesignDay Schedule:Day Name
  {7408abf2-ce36-422f-b3bc-f0b74744bea6}, !- CustomDay1 Schedule:Day Name
  {7408abf2-ce36-422f-b3bc-f0b74744bea6}; !- CustomDay2 Schedule:Day Name

OS:Schedule:Day,
  {7408abf2-ce36-422f-b3bc-f0b74744bea6}, !- Handle
  Zone Heating Setpoint All Days,         !- Name
  {71b2a0c8-5a3c-42c8-9e97-f32263cf2d5a}, !- Schedule Type Limits Name
  ,                                       !- Interpolate to Timestep
  1,                                      !- Hour 1
  0,                                      !- Minute 1
  20,                                     !- Value Until Time 1
  2,                                      !- Hour 2
  0,                                      !- Minute 2
  20,                                     !- Value Until Time 2
  3,                                      !- Hour 3
  0,                                      !- Minute 3
  20,                                     !- Value Until Time 3
  4,                                      !- Hour 4
  0,                                      !- Minute 4
  20,                                     !- Value Until Time 4
  5,                                      !- Hour 5
  0,                                      !- Minute 5
  20,                                     !- Value Until Time 5
  6,                                      !- Hour 6
  0,                                      !- Minute 6
  20,                                     !- Value Until Time 6
  7,                                      !- Hour 7
  0,                                      !- Minute 7
  20,                                     !- Value Until Time 7
  8,                                      !- Hour 8
  0,                                      !- Minute 8
  20,                                     !- Value Until Time 8
  9,                                      !- Hour 9
  0,                                      !- Minute 9
  20,                                     !- Value Until Time 9
  10,                                     !- Hour 10
  0,                                      !- Minute 10
  20,                                     !- Value Until Time 10
  11,                                     !- Hour 11
  0,                                      !- Minute 11
  20,                                     !- Value Until Time 11
  12,                                     !- Hour 12
  0,                                      !- Minute 12
  20,                                     !- Value Until Time 12
  13,                                     !- Hour 13
  0,                                      !- Minute 13
  20,                                     !- Value Until Time 13
  14,                                     !- Hour 14
  0,                                      !- Minute 14
  20,                                     !- Value Until Time 14
  15,                                     !- Hour 15
  0,                                      !- Minute 15
  20,                                     !- Value Until Time 15
  16,                                     !- Hour 16
  0,                                      !- Minute 16
  20,                                     !- Value Until Time 16
  17,                                     !- Hour 17
  0,                                      !- Minute 17
  20,                                     !- Value Until Time 17
  18,                                     !- Hour 18
  0,                                      !- Minute 18
  20,                                     !- Value Until Time 18
  19,                                     !- Hour 19
  0,                                      !- Minute 19
  20,                                     !- Value Until Time 19
  20,                                     !- Hour 20
  0,                                      !- Minute 20
  20,                                     !- Value Until Time 20
  21,                                     !- Hour 21
  0,                                      !- Minute 21
  20,                                     !- Value Until Time 21
  22,                                     !- Hour 22
  0,                                      !- Minute 22
  20,                                     !- Value Until Time 22
  23,                                     !- Hour 23
  0,                                      !- Minute 23
  20,                                     !- Value Until Time 23
  24,                                     !- Hour 24
  0,                                      !- Minute 24
  20;                                     !- Value Until Time 24

OS:YearDescription,
  {528d19d8-3aea-4076-a97f-2567c9a775d6}; !- Handle

OS:Schedule:Year,
  {55ed9412-8f47-416b-87f4-7b439aea0e3f}, !- Handle
  Cooling Setpoints,                      !- Name
  {71b2a0c8-5a3c-42c8-9e97-f32263cf2d5a}, !- Schedule Type Limits Name
  12,                                     !- Month 1
  31,                                     !- Day 1
  {1ea413f0-6e5a-4437-bca3-d854d37ec096}; !- Week Schedule Until Date 1

OS:Schedule:Week,
  {1ea413f0-6e5a-4437-bca3-d854d37ec096}, !- Handle
  Zone Cooling Setpoint All Weeks,        !- Name
  ,                                       !- Schedule Rendering Name
  {df085411-784e-4b71-aec2-5c74eaf910eb}, !- Sunday Schedule:Day Name
  {df085411-784e-4b71-aec2-5c74eaf910eb}, !- Monday Schedule:Day Name
  {df085411-784e-4b71-aec2-5c74eaf910eb}, !- Tuesday Schedule:Day Name
  {df085411-784e-4b71-aec2-5c74eaf910eb}, !- Wednesday Schedule:Day Name
  {df085411-784e-4b71-aec2-5c74eaf910eb}, !- Thursday Schedule:Day Name
  {df085411-784e-4b71-aec2-5c74eaf910eb}, !- Friday Schedule:Day Name
  {df085411-784e-4b71-aec2-5c74eaf910eb}, !- Saturday Schedule:Day Name
  {df085411-784e-4b71-aec2-5c74eaf910eb}, !- Holiday Schedule:Day Name
  {df085411-784e-4b71-aec2-5c74eaf910eb}, !- SummerDesignDay Schedule:Day Name
  {df085411-784e-4b71-aec2-5c74eaf910eb}, !- WinterDesignDay Schedule:Day Name
  {df085411-784e-4b71-aec2-5c74eaf910eb}, !- CustomDay1 Schedule:Day Name
  {df085411-784e-4b71-aec2-5c74eaf910eb}; !- CustomDay2 Schedule:Day Name

OS:Schedule:Day,
  {df085411-784e-4b71-aec2-5c74eaf910eb}, !- Handle
  Zone Cooling Setpoint All Days,         !- Name
  {71b2a0c8-5a3c-42c8-9e97-f32263cf2d5a}, !- Schedule Type Limits Name
  ,                                       !- Interpolate to Timestep
  1,                                      !- Hour 1
  0,                                      !- Minute 1
  27,                                     !- Value Until Time 1
  2,                                      !- Hour 2
  0,                                      !- Minute 2
  27,                                     !- Value Until Time 2
  3,                                      !- Hour 3
  0,                                      !- Minute 3
  27,                                     !- Value Until Time 3
  4,                                      !- Hour 4
  0,                                      !- Minute 4
  27,                                     !- Value Until Time 4
  5,                                      !- Hour 5
  0,                                      !- Minute 5
  27,                                     !- Value Until Time 5
  6,                                      !- Hour 6
  0,                                      !- Minute 6
  27,                                     !- Value Until Time 6
  7,                                      !- Hour 7
  0,                                      !- Minute 7
  27,                                     !- Value Until Time 7
  8,                                      !- Hour 8
  0,                                      !- Minute 8
  27,                                     !- Value Until Time 8
  9,                                      !- Hour 9
  0,                                      !- Minute 9
  27,                                     !- Value Until Time 9
  10,                                     !- Hour 10
  0,                                      !- Minute 10
  27,                                     !- Value Until Time 10
  11,                                     !- Hour 11
  0,                                      !- Minute 11
  27,                                     !- Value Until Time 11
  12,                                     !- Hour 12
  0,                                      !- Minute 12
  27,                                     !- Value Until Time 12
  13,                                     !- Hour 13
  0,                                      !- Minute 13
  27,                                     !- Value Until Time 13
  14,                                     !- Hour 14
  0,                                      !- Minute 14
  27,                                     !- Value Until Time 14
  15,                                     !- Hour 15
  0,                                      !- Minute 15
  27,                                     !- Value Until Time 15
  16,                                     !- Hour 16
  0,                                      !- Minute 16
  27,                                     !- Value Until Time 16
  17,                                     !- Hour 17
  0,                                      !- Minute 17
  27,                                     !- Value Until Time 17
  18,                                     !- Hour 18
  0,                                      !- Minute 18
  27,                                     !- Value Until Time 18
  19,                                     !- Hour 19
  0,                                      !- Minute 19
  27,                                     !- Value Until Time 19
  20,                                     !- Hour 20
  0,                                      !- Minute 20
  27,                                     !- Value Until Time 20
  21,                                     !- Hour 21
  0,                                      !- Minute 21
  27,                                     !- Value Until Time 21
  22,                                     !- Hour 22
  0,                                      !- Minute 22
  27,                                     !- Value Until Time 22
  23,                                     !- Hour 23
  0,                                      !- Minute 23
  27,                                     !- Value Until Time 23
  24,                                     !- Hour 24
  0,                                      !- Minute 24
  27;                                     !- Value Until Time 24

OS:Timestep,
  {1bd4149c-ab62-4a38-86dd-bcbaad14c0f2}, !- Handle
  4;                                      !- Number of Timesteps per Hour

OS:Schedule:Week,
  {acb2c65d-b290-4771-aef9-8b3b6c68b0ba}, !- Handle
  Week Sch 2,                             !- Name
  ,                                       !- Schedule Rendering Name
  {7bb0797a-ca19-402a-bb91-a16e715bfa7b}, !- Sunday Schedule:Day Name
  {7bb0797a-ca19-402a-bb91-a16e715bfa7b}, !- Monday Schedule:Day Name
  {7bb0797a-ca19-402a-bb91-a16e715bfa7b}, !- Tuesday Schedule:Day Name
  {7bb0797a-ca19-402a-bb91-a16e715bfa7b}, !- Wednesday Schedule:Day Name
  {7bb0797a-ca19-402a-bb91-a16e715bfa7b}, !- Thursday Schedule:Day Name
  {7bb0797a-ca19-402a-bb91-a16e715bfa7b}, !- Friday Schedule:Day Name
  {7bb0797a-ca19-402a-bb91-a16e715bfa7b}, !- Saturday Schedule:Day Name
  {7bb0797a-ca19-402a-bb91-a16e715bfa7b}, !- Holiday Schedule:Day Name
  {7bb0797a-ca19-402a-bb91-a16e715bfa7b}, !- SummerDesignDay Schedule:Day Name
  {7bb0797a-ca19-402a-bb91-a16e715bfa7b}, !- WinterDesignDay Schedule:Day Name
  {7bb0797a-ca19-402a-bb91-a16e715bfa7b}, !- CustomDay1 Schedule:Day Name
  {7bb0797a-ca19-402a-bb91-a16e715bfa7b}; !- CustomDay2 Schedule:Day Name

OS:Schedule:Day,
  {7bb0797a-ca19-402a-bb91-a16e715bfa7b}, !- Handle
  Day Sch 2,                              !- Name
  {671c332c-c21d-4dde-a07e-a586944e5703}, !- Schedule Type Limits Name
  ,                                       !- Interpolate to Timestep
  1,                                      !- Hour 1
  0,                                      !- Minute 1
  0,                                      !- Value Until Time 1
  2,                                      !- Hour 2
  0,                                      !- Minute 2
  0,                                      !- Value Until Time 2
  3,                                      !- Hour 3
  0,                                      !- Minute 3
  0,                                      !- Value Until Time 3
  4,                                      !- Hour 4
  0,                                      !- Minute 4
  0,                                      !- Value Until Time 4
  5,                                      !- Hour 5
  0,                                      !- Minute 5
  0,                                      !- Value Until Time 5
  6,                                      !- Hour 6
  0,                                      !- Minute 6
  0,                                      !- Value Until Time 6
  7,                                      !- Hour 7
  0,                                      !- Minute 7
  0,                                      !- Value Until Time 7
  8,                                      !- Hour 8
  0,                                      !- Minute 8
  0,                                      !- Value Until Time 8
  9,                                      !- Hour 9
  0,                                      !- Minute 9
  0,                                      !- Value Until Time 9
  10,                                     !- Hour 10
  0,                                      !- Minute 10
  0,                                      !- Value Until Time 10
  11,                                     !- Hour 11
  0,                                      !- Minute 11
  0,                                      !- Value Until Time 11
  12,                                     !- Hour 12
  0,                                      !- Minute 12
  0,                                      !- Value Until Time 12
  13,                                     !- Hour 13
  0,                                      !- Minute 13
  0,                                      !- Value Until Time 13
  14,                                     !- Hour 14
  0,                                      !- Minute 14
  0,                                      !- Value Until Time 14
  15,                                     !- Hour 15
  0,                                      !- Minute 15
  0,                                      !- Value Until Time 15
  16,                                     !- Hour 16
  0,                                      !- Minute 16
  0,                                      !- Value Until Time 16
  17,                                     !- Hour 17
  0,                                      !- Minute 17
  0,                                      !- Value Until Time 17
  18,                                     !- Hour 18
  0,                                      !- Minute 18
  0,                                      !- Value Until Time 18
  19,                                     !- Hour 19
  0,                                      !- Minute 19
  0,                                      !- Value Until Time 19
  20,                                     !- Hour 20
  0,                                      !- Minute 20
  0,                                      !- Value Until Time 20
  21,                                     !- Hour 21
  0,                                      !- Minute 21
  0,                                      !- Value Until Time 21
  22,                                     !- Hour 22
  0,                                      !- Minute 22
  0,                                      !- Value Until Time 22
  23,                                     !- Hour 23
  0,                                      !- Minute 23
  0,                                      !- Value Until Time 23
  24,                                     !- Hour 24
  0,                                      !- Minute 24
  0;                                      !- Value Until Time 24

OS:ScheduleTypeLimits,
  {671c332c-c21d-4dde-a07e-a586944e5703}, !- Handle
  Fraction,                               !- Name
  0,                                      !- Lower Limit Value
  1,                                      !- Upper Limit Value
  Continuous;                             !- Numeric Type

OS:Output:Variable,
  {519969f5-500f-4918-a75e-903dbed22845}, !- Handle
  {09bcbd97-7bec-4192-84a6-4b70cbf06245}, !- Name
  *,                                      !- Key Value
  Surface Outside Face Sunlit Fraction,   !- Variable Name
  Hourly;                                 !- Reporting Frequency

OS:ScheduleTypeLimits,
  {cbfb9922-cab8-4a1b-8c68-b908e8558929}, !- Handle
  Control Type,                           !- Name
  0,                                      !- Lower Limit Value
  4,                                      !- Upper Limit Value
  Discrete,                               !- Numeric Type
  ControlMode;                            !- Unit Type

OS:Output:Variable,
  {84c5c050-577c-4e5b-b10c-da01af395e77}, !- Handle
  {c64d067c-163b-40c5-9bd5-73f2ba3d8d3d}, !- Name
  *,                                      !- Key Value
  Surface Window Transmitted Diffuse Solar Radiation Rate, !- Variable Name
  Hourly;                                 !- Reporting Frequency

OS:SubSurface,
  {c3686130-fe91-4185-a3b1-e0c3a9544161}, !- Handle
  ZONE SUBSURFACE 1,                      !- Name
  FixedWindow,                            !- Sub Surface Type
  ,                                       !- Construction Name
  {8edd13a9-4afd-4ae7-851a-4a8b610c7db8}, !- Surface Name
  ,                                       !- Outside Boundary Condition Object
  0.5,                                    !- View Factor to Ground
  ,                                       !- Shading Control Name
  ,                                       !- Frame and Divider Name
  1,                                      !- Multiplier
  ,                                       !- Number of Vertices
  0.5, 0, 2.2,                            !- X,Y,Z Vertex 1 {m}
  0.5, 0, 0.2,                            !- X,Y,Z Vertex 2 {m}
  3.5, 0, 0.2,                            !- X,Y,Z Vertex 3 {m}
  3.5, 0, 2.2;                            !- X,Y,Z Vertex 4 {m}

OS:Surface,
  {8edd13a9-4afd-4ae7-851a-4a8b610c7db8}, !- Handle
  ZONE SURFACE SOUTH,                     !- Name
  Wall,                                   !- Surface Type
  ,                                       !- Construction Name
  {719f3feb-3876-4b0d-ad8d-dd66fe87b6a8}, !- Space Name
  Outdoors,                               !- Outside Boundary Condition
  ,                                       !- Outside Boundary Condition Object