
OS:Version,
  {1f38296e-76ce-4196-89fe-e617b7285470}, !- Handle
  1.12.0;                                 !- Version Identifier

OS:Site,
  {d898de2d-7548-4385-9f02-be98701814ed}, !- Handle
  Denver-Stapleton_CO_USA,                !- Name
  39.76,                                  !- Latitude {deg}
  -104.86,                                !- Longitude {deg}
  -7,                                     !- Time Zone {hr}
  1611,                                   !- Elevation {m}
  Country;                                !- Terrain

OS:Schedule:Week,
  {8dd491bc-3784-43f4-811c-19fa8855457b}, !- Handle
  Control Type All Weeks,                 !- Name
  ,                                       !- Schedule Rendering Name
  {73e0e0e8-b5f4-444b-a7cf-9adffe7ca762}, !- Sunday Schedule:Day Name
  {73e0e0e8-b5f4-444b-a7cf-9adffe7ca762}, !- Monday Schedule:Day Name
  {73e0e0e8-b5f4-444b-a7cf-9adffe7ca762}, !- Tuesday Schedule:Day Name
  {73e0e0e8-b5f4-444b-a7cf-9adffe7ca762}, !- Wednesday Schedule:Day Name
  {73e0e0e8-b5f4-444b-a7cf-9adffe7ca762}, !- Thursday Schedule:Day Name
  {73e0e0e8-b5f4-444b-a7cf-9adffe7ca762}, !- Friday Schedule:Day Name
  {73e0e0e8-b5f4-444b-a7cf-9adffe7ca762}, !- Saturday Schedule:Day Name
  {73e0e0e8-b5f4-444b-a7cf-9adffe7ca762}, !- Holiday Schedule:Day Name
  {73e0e0e8-b5f4-444b-a7cf-9adffe7ca762}, !- SummerDesignDay Schedule:Day Name
  {73e0e0e8-b5f4-444b-a7cf-9adffe7ca762}, !- WinterDesignDay Schedule:Day Name
  {73e0e0e8-b5f4-444b-a7cf-9adffe7ca762}, !- CustomDay1 Schedule:Day Name
  {73e0e0e8-b5f4-444b-a7cf-9adffe7ca762}; !- CustomDay2 Schedule:Day Name

OS:Schedule:Day,
  {73e0e0e8-b5f4-444b-a7cf-9adffe7ca762}, !- Handle
  Control Type All Days,                  !- Name
  {e71f4017-3794-4e24-8c41-f04a814ab13d}, !- Schedule Type Limits Name
  ,                                       !- Interpolate to Timestep
  1,                                      !- Hour 1
  0,                                      !- Minute 1
  4,                                      !- Value Until Time 1
  2,                                      !- Hour 2
  0,                                      !- Minute 2
  4,                                      !- Value Until Time 2
  3,                                      !- Hour 3
  0,                                      !- Minute 3
  4,                                      !- Value Until Time 3
  4,                                      !- Hour 4
  0,                                      !- Minute 4
  4,                                      !- Value Until Time 4
  5,                                      !- Hour 5
  0,                                      !- Minute 5
  4,                                      !- Value Until Time 5
  6,                                      !- Hour 6
  0,                                      !- Minute 6
  4,                                      !- Value Until Time 6
  7,                                      !- Hour 7
  0,                                      !- Minute 7
  4,                                      !- Value Until Time 7
  8,                                      !- Hour 8
  0,                                      !- Minute 8
  4,                                      !- Value Until Time 8
  9,                                      !- Hour 9
  0,                                      !- Minute 9
  4,                                      !- Value Until Time 9
  10,                                     !- Hour 10
  0,                                      !- Minute 10
  4,                                      !- Value Until Time 10
  11,                                     !- Hour 11
  0,                                      !- Minute 11
  4,                                      !- Value Until Time 11
  12,                                     !- Hour 12
  0,                                      !- Minute 12
  4,                                      !- Value Until Time 12
  13,                                     !- Hour 13
  0,                                      !- Minute 13
  4,                                      !- Value Until Time 13
  14,                                     !- Hour 14
  0,                                      !- Minute 14
  4,                                      !- Value Until Time 14
  15,                                     !- Hour 15
  0,                                      !- Minute 15
  4,                                      !- Value Until Time 15
  16,                                     !- Hour 16
  0,                                      !- Minute 16
  4,                                      !- Value Until Time 16
  17,                                     !- Hour 17
  0,                                      !- Minute 17
  4,                                      !- Value Until Time 17
  18,                                     !- Hour 18
  0,                                      !- Minute 18
  4,                                      !- Value Until Time 18
  19,                                     !- Hour 19
  0,                                      !- Minute 19
  4,                                      !- Value Until Time 19
  20,                                     !- Hour 20
  0,                                      !- Minute 20
  4,                                      !- Value Until Time 20
  21,                                     !- Hour 21
  0,                                      !- Minute 21
  4,                                      !- Value Until Time 21
  22,                                     !- Hour 22
  0,                                      !- Minute 22
  4,                                      !- Value Until Time 22
  23,                                     !- Hour 23
  0,                                      !- Minute 23
  4,                                      !- Value Until Time 23
  24,                                     !- Hour 24
  0,                                      !- Minute 24
  4;                                      !- Value Until Time 24

OS:ScheduleTypeLimits,
  {e71f4017-3794-4e24-8c41-f04a814ab13d}, !- Handle
  Control Type,                           !- Name
  0,                                      !- Lower Limit Value
  4,                                      !- Upper Limit Value
  Discrete,                               !- Numeric Type
  ControlMode;                            !- Unit Type

OS:ThermostatSetpoint:DualSetpoint,
  {53cd03c1-a325-490e-b58c-71149f46c5e8}, !- Handle
  {cc7c6d41-6dae-4b49-8472-aa1f73ec6b57}, !- Name
  {ca317843-5d45-46f0-8bf3-57d8185b7d41}, !- Heating Setpoint Temperature Schedule Name
  {ffdb2eb0-a8c3-4c37-9c48-5ab889b6b0e5}; !- Cooling Setpoint Temperature Schedule Name

OS:Schedule:Year,
  {ca317843-5d45-46f0-8bf3-57d8185b7d41}, !- Handle
  Heating Setpoints,                      !- Name
  {576bb2f1-cb3a-4b48-920b-e89228101b9c}, !- Schedule Type Limits Name
  12,                                     !- Month 1
  31,                                     !- Day 1
  {3fd8cced-4ad0-4f27-906c-d63a63f9e21d}; !- Week Schedule Until Date 1

OS:ScheduleTypeLimits,
  {576bb2f1-cb3a-4b48-920b-e89228101b9c}, !- Handle
  Temperature,                            !- Name
  -60,                                    !- Lower Limit Value
  200,                                    !- Upper Limit Value
  Continuous,                             !- Numeric Type
  Temperature;                            !- Unit Type

OS:Schedule:Week,
  {3fd8cced-4ad0-4f27-906c-d63a63f9e21d}, !- Handle
  Zone Heating Setpoint All Weeks,        !- Name
  ,                                       !- Schedule Rendering Name
  {37feb8de-26ff-42d0-8bfb-2a129c89ae5a}, !- Sunday Schedule:Day Name
  {37feb8de-26ff-42d0-8bfb-2a129c89ae5a}, !- Monday Schedule:Day Name
  {37feb8de-26ff-42d0-8bfb-2a129c89ae5a}, !- Tuesday Schedule:Day Name
  {37feb8de-26ff-42d0-8bfb-2a129c89ae5a}, !- Wednesday Schedule:Day Name
  {37feb8de-26ff-42d0-8bfb-2a129c89ae5a}, !- Thursday Schedule:Day Name
  {37feb8de-26ff-42d0-8bfb-2a129c89ae5a}, !- Friday Schedule:Day Name
  {37feb8de-26ff-42d0-8bfb-2a129c89ae5a}, !- Saturday Schedule:Day Name
  {37feb8de-26ff-42d0-8bfb-2a129c89ae5a}, !- Holiday Schedule:Day Name
  {37feb8de-26ff-42d0-8bfb-2a129c89ae5a}, !- SummerDesignDay Schedule:Day Name
  {37feb8de-26ff-42d0-8bfb-2a129c89ae5a}, !- WinterDesignDay Schedule:Day Name
  {37feb8de-26ff-42d0-8bfb-2a129c89ae5a}, !- CustomDay1 Schedule:Day Name
  {37feb8de-26ff-42d0-8bfb-2a129c89ae5a}; !- CustomDay2 Schedule:Day Name

OS:Schedule:Day,
  {37feb8de-26ff-42d0-8bfb-2a129c89ae5a}, !- Handle
  Zone Heating Setpoint All Days,         !- Name
  {576bb2f1-cb3a-4b48-920b-e89228101b9c}, !- Schedule Type Limits Name
  ,                                       !- Interpolate to Timestep
  1,                                      !- Hour 1
  0,                                      !- Minute 1
  20,                                     !- Value Until Time 1
  2,                                      !- Hour 2
  0,                                      !- Minute 2
  20,                                     !- Value Until Time 2
  3,                                      !- Hour 3
  0,                                      !- Minute 3
  20,                                     !- Value Until Time 3
  4,                                      !- Hour 4
  0,                                      !- Minute 4
  20,                                     !- Value Until Time 4
  5,                                      !- Hour 5
  0,                                      !- Minute 5
  20,                                     !- Value Until Time 5
  6,                                      !- Hour 6
  0,                                      !- Minute 6
  20,                                     !- Value Until Time 6
  7,                                      !- Hour 7
  0,                                      !- Minute 7
  20,                                     !- Value Until Time 7
  8,                                      !- Hour 8
  0,                                      !- Minute 8
  20,                                     !- Value Until Time 8
  9,                                      !- Hour 9
  0,                                      !- Minute 9
  20,                                     !- Value Until Time 9
  10,                                     !- Hour 10
  0,                                      !- Minute 10
  20,                                     !- Value Until Time 10
  11,                                     !- Hour 11
  0,                                      !- Minute 11
  20,                                     !- Value Until Time 11
  12,                                     !- Hour 12
  0,                                      !- Minute 12
  20,                                     !- Value Until Time 12
  13,                                     !- Hour 13
  0,                                      !- Minute 13
  20,                                     !- Value Until Time 13
  14,                                     !- Hour 14
  0,                                      !- Minute 14
  20,                                     !- Value Until Time 14
  15,                                     !- Hour 15
  0,                                      !- Minute 15
  20,                                     !- Value Until Time 15
  16,                                     !- Hour 16
  0,                                      !- Minute 16
  20,                                     !- Value Until Time 16
  17,                                     !- Hour 17
  0,                                      !- Minute 17
  20,                                     !- Value Until Time 17
  18,                                     !- Hour 18
  0,                                      !- Minute 18
  20,                                     !- Value Until Time 18
  19,                                     !- Hour 19
  0,                                      !- Minute 19
  20,                                     !- Value Until Time 19
  20,                                     !- Hour 20
  0,                                      !- Minute 20
  20,                                     !- Value Until Time 20
  21,                                     !- Hour 21
  0,                                      !- Minute 21
  20,                                     !- Value Until Time 21
  22,                                     !- Hour 22
  0,                                      !- Minute 22
  20,                                     !- Value Until Time 22
  23,                                     !- Hour 23
  0,                                      !- Minute 23
  20,                                     !- Value Until Time 23
  24,                                     !- Hour 24
  0,                                      !- Minute 24
  20;                                     !- Value Until Time 24

OS:YearDescription,
  {571db513-554f-444a-b557-4fd189bbbe2b}; !- Handle

OS:Schedule:Year,
  {ffdb2eb0-a8c3-4c37-9c48-5ab889b6b0e5}, !- Handle
  Cooling Setpoints,                      !- Name
  {576bb2f1-cb3a-4b48-920b-e89228101b9c}, !- Schedule Type Limits Name
  12,                                     !- Month 1
  31,                                     !- Day 1
  {a9bf0322-bdaa-4e99-8d0d-7f0e7d745358}; !- Week Schedule Until Date 1

OS:Schedule:Week,
  {a9bf0322-bdaa-4e99-8d0d-7f0e7d745358}, !- Handle
  Zone Cooling Setpoint All Weeks,        !- Name
  ,                                       !- Schedule Rendering Name
  {9a3d6e1a-0b56-4b05-b387-76d0ce9ce931}, !- Sunday Schedule:Day Name
  {9a3d6e1a-0b56-4b05-b387-76d0ce9ce931}, !- Monday Schedule:Day Name
  {9a3d6e1a-0b56-4b05-b387-76d0ce9ce931}, !- Tuesday Schedule:Day Name
  {9a3d6e1a-0b56-4b05-b387-76d0ce9ce931}, !- Wednesday Schedule:Day Name
  {9a3d6e1a-0b56-4b05-b387-76d0ce9ce931}, !- Thursday Schedule:Day Name
  {9a3d6e1a-0b56-4b05-b387-76d0ce9ce931}, !- Friday Schedule:Day Name
  {9a3d6e1a-0b56-4b05-b387-76d0ce9ce931}, !- Saturday Schedule:Day Name
  {9a3d6e1a-0b56-4b05-b387-76d0ce9ce931}, !- Holiday Schedule:Day Name
  {9a3d6e1a-0b56-4b05-b387-76d0ce9ce931}, !- SummerDesignDay Schedule:Day Name
  {9a3d6e1a-0b56-4b05-b387-76d0ce9ce931}, !- WinterDesignDay Schedule:Day Name
  {9a3d6e1a-0b56-4b05-b387-76d0ce9ce931}, !- CustomDay1 Schedule:Day Name
  {9a3d6e1a-0b56-4b05-b387-76d0ce9ce931}; !- CustomDay2 Schedule:Day Name

OS:Schedule:Day,
  {9a3d6e1a-0b56-4b05-b387-76d0ce9ce931}, !- Handle
  Zone Cooling Setpoint All Days,         !- Name
  {576bb2f1-cb3a-4b48-920b-e89228101b9c}, !- Schedule Type Limits Name
  ,                                       !- Interpolate to Timestep
  1,                                      !- Hour 1
  0,                                      !- Minute 1
  27,                                     !- Value Until Time 1
  2,                                      !- Hour 2
  0,                                      !- Minute 2
  27,                                     !- Value Until Time 2
  3,                                      !- Hour 3
  0,                                      !- Minute 3
  27,                                     !- Value Until Time 3
  4,                                      !- Hour 4
  0,                                      !- Minute 4
  27,                                     !- Value Until Time 4
  5,                                      !- Hour 5
  0,                                      !- Minute 5
  27,                                     !- Value Until Time 5
  6,                                      !- Hour 6
  0,                                      !- Minute 6
  27,                                     !- Value Until Time 6
  7,                                      !- Hour 7
  0,                                      !- Minute 7
  27,                                     !- Value Until Time 7
  8,                                      !- Hour 8
  0,                                      !- Minute 8
  27,                                     !- Value Until Time 8
  9,                                      !- Hour 9
  0,                                      !- Minute 9
  27,                                     !- Value Until Time 9
  10,                                     !- Hour 10
  0,                                      !- Minute 10
  27,                                     !- Value Until Time 10
  11,                                     !- Hour 11
  0,                                      !- Minute 11
  27,                                     !- Value Until Time 11
  12,                                     !- Hour 12
  0,                                      !- Minute 12
  27,                                     !- Value Until Time 12
  13,                                     !- Hour 13
  0,                                      !- Minute 13
  27,                                     !- Value Until Time 13
  14,                                     !- Hour 14
  0,                                      !- Minute 14
  27,                                     !- Value Until Time 14
  15,                                     !- Hour 15
  0,                                      !- Minute 15
  27,                                     !- Value Until Time 15
  16,                                     !- Hour 16
  0,                                      !- Minute 16
  27,                                     !- Value Until Time 16
  17,                                     !- Hour 17
  0,                                      !- Minute 17
  27,                                     !- Value Until Time 17
  18,                                     !- Hour 18
  0,                                      !- Minute 18
  27,                                     !- Value Until Time 18
  19,                                     !- Hour 19
  0,                                      !- Minute 19
  27,                                     !- Value Until Time 19
  20,                                     !- Hour 20
  0,                                      !- Minute 20
  27,                                     !- Value Until Time 20
  21,                                     !- Hour 21
  0,                                      !- Minute 21
  27,                                     !- Value Until Time 21
  22,                                     !- Hour 22
  0,                                      !- Minute 22
  27,                                     !- Value Until Time 22
  23,                                     !- Hour 23
  0,                                      !- Minute 23
  27,                                     !- Value Until Time 23
  24,                                     !- Hour 24
  0,                                      !- Minute 24
  27;                                     !- Value Until Time 24

OS:Output:Variable,
  {1877cf0d-8595-4ab6-a90b-3269e4d6fa82}, !- Handle
  {e85956dc-f44a-44d9-9e3a-17db5f335e21}, !- Name
  *,                                      !- Key Value
  Surface Window Transmitted Solar Radiation Energy, !- Variable Name
  Hourly;                                 !- Reporting Frequency

OS:Schedule:Day,
  {2d82d102-5874-4933-8b6e-b7c41dc3eb0c}, !- Handle
  Day Sch 1,                              !- Name
  {d315b79f-f2cc-484a-b88a-49c7511c04c5}, !- Schedule Type Limits Name
  ,                                       !- Interpolate to Timestep
  1,                                      !- Hour 1
  0,                                      !- Minute 1
  1,                                      !- Value Until Time 1
  2,                                      !- Hour 2
  0,                                      !- Minute 2
  1,                                      !- Value Until Time 2
  3,                                      !- Hour 3
  0,                                      !- Minute 3
  1,                                      !- Value Until Time 3
  4,                                      !- Hour 4
  0,                                      !- Minute 4
  1,                                      !- Value Until Time 4
  5,                                      !- Hour 5
  0,                                      !- Minute 5
  1,                                      !- Value Until Time 5
  6,                                      !- Hour 6
  0,                                      !- Minute 6
  1,                                      !- Value Until Time 6
  7,                                      !- Hour 7
  0,                                      !- Minute 7
  1,                                      !- Value Until Time 7
  8,                                      !- Hour 8
  0,                                      !- Minute 8
  1,                                      !- Value Until Time 8
  9,                                      !- Hour 9
  0,                                      !- Minute 9
  1,                                      !- Value Until Time 9
  10,                                     !- Hour 10
  0,                                      !- Minute 10
  1,                                      !- Value Until Time 10
  11,                                     !- Hour 11
  0,                                      !- Minute 11
  1,                                      !- Value Until Time 11
  12,                                     !- Hour 12
  0,                                      !- Minute 12
  1,                                      !- Value Until Time 12
  13,                                     !- Hour 13
  0,                                      !- Minute 13
  1,                                      !- Value Until Time 13
  14,                                     !- Hour 14
  0,                                      !- Minute 14
  1,                                      !- Value Until Time 14
  15,                                     !- Hour 15
  0,                                      !- Minute 15
  1,                                      !- Value Until Time 15
  16,                                     !- Hour 16
  0,                                      !- Minute 16
  1,                                      !- Value Until Time 16
  17,                                     !- Hour 17
  0,                                      !- Minute 17
  1,                                      !- Value Until Time 17
  18,                                     !- Hour 18
  0,                                      !- Minute 18
  1,                                      !- Value Until Time 18
  19,                                     !- Hour 19
  0,                                      !- Minute 19
  1,                                      !- Value Until Time 19
  20,                                     !- Hour 20
  0,                                      !- Minute 20
  1,                                      !- Value Until Time 20
  21,                                     !- Hour 21
  0,                                      !- Minute 21
  1,                                      !- Value Until Time 21
  22,                                     !- Hour 22
  0,                                      !- Minute 22
  1,                                      !- Value Until Time 22
  23,                                     !- Hour 23
  0,                                      !- Minute 23
  1,                                      !- Value Until Time 23
  24,                                     !- Hour 24
  0,                                      !- Minute 24
  1;                                      !- Value Until Time 24

OS:ScheduleTypeLimits,
  {d315b79f-f2cc-484a-b88a-49c7511c04c5}, !- Handle
  Fraction,                               !- Name
  0,                                      !- Lower Limit Value
  1,                                      !- Upper Limit Value
  Continuous;                             !- Numeric Type

OS:Output:Variable,
  {3ec156cb-cb9f-4f6a-bddf-36a2a2184ec1}, !- Handle
  {021b585c-3fe2-46cc-8f5e-e57437fa6c58}, !- Name
  *,                                      !- Key Value
  Zone Air System Sensible Heating Energy, !- Variable Name
  Hourly;                                 !- Reporting Frequency

OS:Schedule:Week,
  {55d53a66-8146-40fb-b6fb-1515f613781a}, !- Handle
  Week Sch 1,                             !- Name
  ,                                       !- Schedule Rendering Name
  {2d82d102-5874-4933-8b6e-b7c41dc3eb0c}, !- Sunday Schedule:Day Name
  {2d82d102-5874-4933-8b6e-b7c41dc3eb0c}, !- Monday Schedule:Day Name
  {2d82d102-5874-4933-8b6e-b7c41dc3eb0c}, !- Tuesday Schedule:Day Name
  {2d82d102-5874-4933-8b6e-b7c41dc3eb0c}, !- Wednesday Schedule:Day Name
  {2d82d102-5874-4933-8b6e-b7c41dc3eb0c}, !- Thursday Schedule:Day Name
  {2d82d102-5874-4933-8b6e-b7c41dc3eb0c}, !- Friday Schedule:Day Name
  {2d82d102-5874-4933-8b6e-b7c41dc3eb0c}, !- Saturday Schedule:Day Name
  {2d82d102-5874-4933-8b6e-b7c41dc3eb0c}, !- Holiday Schedule:Day Name
  {2d82d102-5874-4933-8b6e-b7c41dc3eb0c}, !- SummerDesignDay Schedule:Day Name
  {2d82d102-5874-4933-8b6e-b7c41dc3eb0c}, !- WinterDesignDay Schedule:Day Name
  {2d82d102-5874-4933-8b6e-b7c41dc3eb0c}, !- CustomDay1 Schedule:Day Name
  {2d82d102-5874-4933-8b6e-b7c41dc3eb0c}; !- CustomDay2 Schedule:Day Name

OS:RunPeriod,
  {33641ef8-c2a6-466e-b8b9-c3440e7cdcc7}, !- Handle
  Run Period 1,                           !- Name
  1,                                      !- Begin Month
  1,                                      !- Begin Day of Month
  12,                                     !- End Month
  31,                                     !- End Day of Month
  Yes,                                    !- Use Weather File Holidays and Special Days
  Yes,                                    !- Use Weather File Daylight Saving Period
  Yes,                                    !- Apply Weekend Holiday Rule
  Yes,                                    !- Use Weather File Rain Indicators
  Yes,                                    !- Use Weather File Snow Indicators
  ;                                       !- Number of Times Runperiod to be Repeated

OS:Timestep,
  {55f13ab2-0805-4e18-bf90-08e3f5245823}, !- Handle
  4;                                      !- Number of Timesteps per Hour

OS:SimulationControl,
  {1045e599-f713-4fc5-a57d-0a0dcde733c5}, !- Handle
  ,                                       !- Do Zone Sizing Calculation
  ,                                       !- Do System Sizing Calculation
  ,                                       !- Do Plant Sizing Calculation
  ,                                       !- Run Simulation for Sizing Periods
  ,                                       !- Run Simulation for Weather File Run Periods
  0.039999999,                            !- Loads Convergence Tolerance Value
  0.0040000002,                           !- Temperature Convergence Tolerance Value {deltaC}
  FullInteriorAndExterior,                !- Solar Distribution
  ,                                       !- Maximum Number of Warmup Days
  6;                                      !- Minimum Number of Warmup Days

OS:Output:Variable,
  {1a696530-ef33-423f-b3d4-1c4fabc7e8c6}, !- Handle
  {9d34dc98-256d-4661-b8ed-08aae0813278}, !- Name
  *,                                      !- Key Value
  Surface Outside Face Incident Solar Radiation Rate per Area, !- Variable Name
  Hourly;                                 !- Reporting Frequency

OS:Output:Variable,
  {354f8c46-b488-4139-8966-e8c2e6c26a8c}, !- Handle
  {ff931340-6fe6-4dd1-8e7b-00720ce15494}, !- Name
  *,                                      !- Key Value
  Surface Window Transmitted Beam Solar Radiation Rate, !- Variable Name
  Hourly;                                 !- Reporting Frequency

OS:Output:Variable,
  {0732c2c8-9c7c-4004-b8ff-38c5137a3bab}, !- Handle
  {8c698267-1c3b-40d5-ab04-9b733ce9f7de}, !- Name
  *,                                      !- Key Value
  Surface Window Transmitted Solar Radiation Rate, !- Variable Name
  Hourly;                                 !- Reporting Frequency

OS:Output:Variable,
  {d0e9d22a-c4c9-4826-ab83-e0f63a5ee887}, !- Handle
  {0cd65681-4247-46dc-9cf9-111fb1aab38e}, !- Name
  *,                                      !- Key Value
  Surface Window Transmitted Diffuse Solar Radiation Rate, !- Variable Name
  Hourly;                                 !- Reporting Frequency

OS:Output:Variable,
  {63cf9a7f-7b35-4262-84f1-c3c435bef587}, !- Handle
  {5c029f7b-a9da-4403-b7f8-3aecbe13d82c}, !- Name
  *,                                      !- Key Value
  Zone Air System Sensible Cooling Energy, !- Variable Name
  Hourly;                                 !- Reporting Frequency

OS:Output:Variable,
  {4e9e479c-ddc2-4b90-a5f7-9b4eea606c2e}, !- Handle
  {0149769e-9e09-4275-a8fd-b32fc6ba82c4}, !- Name
  *,                                      !- Key Value
  Surface Window Transmitted Beam Solar Radiation Energy, !- Variable Name
  Hourly;                                 !- Reporting Frequency

OS:Output:Variable,
  {6ddc2741-abc9-4934-adcb-4eb2df704824}, !- Handle
  {348c501d-dc31-4ad2-916b-c97465d81a08}, !- Name
  *,                                      !- Key Value
  Zone Mean Air Temperature,              !- Variable Name
  Hourly;                                 !- Reporting Frequency

OS:ShadowCalculation,
  {fc267a0f-52d1-40b3-9233-c7707b29d730}, !- Handle
  1,                                      !- Calculation Frequency
  15000;                                  !- Maximum Figures in Shadow Overlap Calculations

OS:Output:Variable,
  {99bccca1-7106-4f02-a2ed-3efe945376fd}, !- Handle
  {ea590a6b-8967-420b-91b0-2c4e160ca2fc}, !- Name
  *,                                      !- Key Value
  Surface Window Transmitted Diffuse Solar Radiation Energy, !- Variable Name
  Hourly;                                 !- Reporting Frequency

OS:Facility,
  {5d4985ec-9627-470b-823e-abc118eb8e8c}; !- Handle

OS:Rendering:Color,
  {482afd50-4329-41c5-ad49-4046ff9c189e}, !- Handle
  Rendering Color 1,                      !- Name
  255,                                    !- Rendering Red Value