
OS:Version,
  {158d0af2-efe7-459e-a9df-7f6a6b77b9a7}, !- Handle
  2.1.1;                                  !- Version Identifier

OS:Site,
  {bc874655-a927-4872-a278-1347186bb1d9}, !- Handle
  Ottawa Int'l_ON_CAN,                    !- Name
  45.32,                                  !- Latitude {deg}
  -75.67,                                 !- Longitude {deg}
  -5,                                     !- Time Zone {hr}
  114,                                    !- Elevation {m}
  Country;                                !- Terrain

OS:YearDescription,
  {9116ce1c-534f-4b3a-9d15-2bb1a805c7e1}, !- Handle
  ,                                       !- Calendar Year
  ;                                       !- Day of Week for Start Day

OS:ClimateZones,
  {dd268d6b-2da7-4abc-b8ad-35d0988c56cd}, !- Handle
  ,                                       !- Active Institution
  ,                                       !- Active Year
  ASHRAE,                                 !- Climate Zone Institution Name 1
  ANSI/ASHRAE Standard 169,               !- Climate Zone Document Name 1
  2006,                                   !- Climate Zone Document Year 1
  ,                                       !- Climate Zone Value 1
  CEC,                                    !- Climate Zone Institution Name 2
  California Climate Zone Descriptions,   !- Climate Zone Document Name 2
  1995,                                   !- Climate Zone Document Year 2
  ;                                       !- Climate Zone Value 2

OS:Facility,
  {01cd2b0a-8ee0-4ab6-a2fb-9f6c7d21094d}; !- Handle

OS:SimulationControl,
  {30e9303f-ed23-491c-b310-8ef7274e967f}, !- Handle
  ,                                       !- Do Zone Sizing Calculation
  ,                                       !- Do System Sizing Calculation
  ,                                       !- Do Plant Sizing Calculation
  No,                                     !- Run Simulation for Sizing Periods
  ,                                       !- Run Simulation for Weather File Run Periods
  ,                                       !- Loads Convergence Tolerance Value
  ,                                       !- Temperature Convergence Tolerance Value {deltaC}
  FullInteriorAndExterior,                !- Solar Distribution
  ,                                       !- Maximum Number of Warmup Days
  6;                                      !- Minimum Number of Warmup Days

OS:Sizing:Parameters,
  {c983733e-8a2d-428d-8380-a9c380f3d01c}, !- Handle
  1.25,                                   !- Heating Sizing Factor
  1.15;                                   !- Cooling Sizing Factor

OS:Timestep,
  {7a470c9d-4813-47b4-b276-325100b7b62f}, !- Handle
  4;                                      !- Number of Timesteps per Hour

OS:ShadowCalculation,
  {21696cf9-7a12-43bf-ac4c-50d1be8bf2fd}, !- Handle
  20,                                     !- Calculation Frequency
  15000;                                  !- Maximum Figures in Shadow Overlap Calculations

OS:HeatBalanceAlgorithm,
  {09f4a614-27ba-43a9-a0ac-4379e03c44e8}, !- Handle
  ConductionTransferFunction,             !- Algorithm
  200,                                    !- Surface Temperature Upper Limit {C}
  1e-07;                                  !- Minimum Surface Convection Heat Transfer Coefficient Value {W/m2-K}

OS:RunPeriod,
  {322b0b21-e55e-459f-b4f2-853d2d37fd9a}, !- Handle
  Run Period 1,                           !- Name
  1,                                      !- Begin Month
  1,                                      !- Begin Day of Month
  3,                                      !- End Month
  31,                                     !- End Day of Month
  ,                                       !- Use Weather File Holidays and Special Days
  ,                                       !- Use Weather File Daylight Saving Period
  ,                                       !- Apply Weekend Holiday Rule
  ,                                       !- Use Weather File Rain Indicators
  ,                                       !- Use Weather File Snow Indicators
  ;                                       !- Number of Times Runperiod to be Repeated

OS:LifeCycleCost:Parameters,
  {a8ce31c8-7533-4ad7-aa7a-5380b4197455}, !- Handle
  ,                                       !- Analysis Type
  ,                                       !- Discounting Convention
  ,                                       !- Inflation Approach
  ,                                       !- Real Discount Rate
  ,                                       !- Nominal Discount Rate
  ,                                       !- Inflation
  ,                                       !- Base Date Month
  ,                                       !- Base Date Year
  ,                                       !- Service Date Month
  ,                                       !- Service Date Year
  ;                                       !- Length of Study Period in Years

OS:SurfaceConvectionAlgorithm:Inside,
  {7f0db983-3d30-42ac-9fed-97f6c99d08aa}, !- Handle
  Simple;                                 !- Algorithm

OS:SurfaceConvectionAlgorithm:Outside,
  {2874003f-ddc7-4e27-9734-96cc586d30d5}, !- Handle
  DOE-2;                                  !- Algorithm

OS:WeatherFile,
  {4c2eabd6-2586-49c1-a11a-eb1ed8a54b47}, !- Handle
  Ottawa Int'l,                           !- City
  ON,                                     !- State Province Region
  CAN,                                    !- Country
  WYEC2-B-04772,                          !- Data Source
  716280,                                 !- WMO Number
  45.32,                                  !- Latitude {deg}
  -75.67,                                 !- Longitude {deg}
  -5,                                     !- Time Zone {hr}
  114,                                    !- Elevation {m}
  file:///Users/dgoldwas/Documents/GitHub/NREL/OSEP_BESTTEST/measures/bestest_space_heating_equipment_performance/resources/HE140WWY2.epw, !- Url
  003B129F;                               !- Checksum

OS:SizingPeriod:DesignDay,
  {b1e02933-a5c6-43e8-a388-b793b61444f2}, !- Handle
  Sizing Period Design Day 1,             !- Name
  23,                                     !- Maximum Dry-Bulb Temperature {C}
  0,                                      !- Daily Dry-Bulb Temperature Range {deltaC}
  23,                                     !- Humidity Indicating Conditions at Maximum Dry-Bulb
  31000,                                  !- Barometric Pressure {Pa}
  0,                                      !- Wind Speed {m/s}
  0,                                      !- Wind Direction {deg}
  0,                                      !- Sky Clearness
  ,                                       !- Rain Indicator
  0,                                      !- Snow Indicator
  1,                                      !- Day of Month
  1,                                      !- Month
  SummerDesignDay,                        !- Day Type
  0,                                      !- Daylight Saving Time Indicator
  WetBulb,                                !- Humidity Indicating Type
  ,                                       !- Humidity Indicating Day Schedule Name
  DefaultMultipliers,                     !- Dry-Bulb Temperature Range Modifier Type
  ,                                       !- Dry-Bulb Temperature Range Modifier Schedule Name
  ASHRAEClearSky;                         !- Solar Model Indicator

OS:SizingPeriod:DesignDay,
  {4456edbd-b330-4f2c-9cc7-8b2a930fbc2c}, !- Handle
  Sizing Period Design Day 2,             !- Name
  23,                                     !- Maximum Dry-Bulb Temperature {C}
  0,                                      !- Daily Dry-Bulb Temperature Range {deltaC}
  23,                                     !- Humidity Indicating Conditions at Maximum Dry-Bulb
  31000,                                  !- Barometric Pressure {Pa}
  0,                                      !- Wind Speed {m/s}
  0,                                      !- Wind Direction {deg}
  0,                                      !- Sky Clearness
  ,                                       !- Rain Indicator
  0,                                      !- Snow Indicator
  1,                                      !- Day of Month
  1,                                      !- Month
  WinterDesignDay,                        !- Day Type
  0,                                      !- Daylight Saving Time Indicator
  WetBulb,                                !- Humidity Indicating Type
  ,                                       !- Humidity Indicating Day Schedule Name
  DefaultMultipliers,                     !- Dry-Bulb Temperature Range Modifier Type
  ,                                       !- Dry-Bulb Temperature Range Modifier Schedule Name
  ASHRAEClearSky;                         !- Solar Model Indicator

OS:Building,
  {660c8866-637f-45fa-b21b-8d8aa14b5283}, !- Handle
  BESTEST Case HE170 - Draft Fan Test,    !- Name
  ,                                       !- Building Sector Type
  0,                                      !- North Axis {deg}
  ,                                       !- Nominal Floor to Floor Height {m}
  ,                                       !- Space Type Name
  ,                                       !- Default Construction Set Name
  ;                                       !- Default Schedule Set Name

OS:ThermalZone,
  {282d3ec8-ac31-407f-a740-a4d2de6e0514}, !- Handle
  ZONE ONE,                               !- Name
  1,                                      !- Multiplier
  2.7,                                    !- Ceiling Height {m}
  129.6,                                  !- Volume {m3}
  ,                                       !- Floor Area {m2}
  ,                                       !- Zone Inside Convection Algorithm
  ,                                       !- Zone Outside Convection Algorithm
  ,                                       !- Zone Conditioning Equipment List Name
  {07aff053-9efa-4344-ac7e-b23714b31d9f}, !- Zone Air Inlet Port List
  {a0e4adae-e261-49b3-bbc1-411ae4d3caeb}, !- Zone Air Exhaust Port List
  {1df5a8b6-dc36-4636-9f8a-741bb48bd661}, !- Zone Air Node Name
  {544a1868-69c4-4246-8b52-c1cfd4c1983d}, !- Zone Return Air Node Name
  ,                                       !- Primary Daylighting Control Name
  ,                                       !- Fraction of Zone Controlled by Primary Daylighting Control
  ,                                       !- Secondary Daylighting Control Name
  ,                                       !- Fraction of Zone Controlled by Secondary Daylighting Control
  ,                                       !- Illuminance Map Name
  ,                                       !- Group Rendering Name
  {a5f64ce3-4378-493c-a6e0-b7c2ea79ec06}, !- Thermostat Name
  No,                                     !- Use Ideal Air Loads
  ;                                       !- Humidistat Name

OS:Node,
  {88b145de-5637-418b-b1f7-2ec182ed31da}, !- Handle
  Node 1,                                 !- Name
  {1df5a8b6-dc36-4636-9f8a-741bb48bd661}, !- Inlet Port
  ;                                       !- Outlet Port

OS:Connection,
  {1df5a8b6-dc36-4636-9f8a-741bb48bd661}, !- Handle
  {54e4cbf7-8af5-420e-b246-449aeb931d8c}, !- Name
  {282d3ec8-ac31-407f-a740-a4d2de6e0514}, !- Source Object
  11,                                     !- Outlet Port
  {88b145de-5637-418b-b1f7-2ec182ed31da}, !- Target Object
  2;                                      !- Inlet Port

OS:PortList,
  {07aff053-9efa-4344-ac7e-b23714b31d9f}, !- Handle
  Port List 1,                            !- Name
  {282d3ec8-ac31-407f-a740-a4d2de6e0514}, !- HVAC Component
  {3ee63889-ecbf-4669-8dba-53d8801b2572}; !- Port 1

OS:PortList,
  {a0e4adae-e261-49b3-bbc1-411ae4d3caeb}, !- Handle
  Port List 2,                            !- Name
  {282d3ec8-ac31-407f-a740-a4d2de6e0514}; !- HVAC Component

OS:Sizing:Zone,
  {9dbe866d-9ddf-46ac-8cd9-0909d4792788}, !- Handle
  {282d3ec8-ac31-407f-a740-a4d2de6e0514}, !- Zone or ZoneList Name
  SupplyAirTemperature,                   !- Zone Cooling Design Supply Air Temperature Input Method
  14,                                     !- Zone Cooling Design Supply Air Temperature {C}
  11.11,                                  !- Zone Cooling Design Supply Air Temperature Difference {deltaC}
  SupplyAirTemperature,                   !- Zone Heating Design Supply Air Temperature Input Method
  40,                                     !- Zone Heating Design Supply Air Temperature {C}
  11.11,                                  !- Zone Heating Design Supply Air Temperature Difference {deltaC}
  0.0085,                                 !- Zone Cooling Design Supply Air Humidity Ratio {kg-H2O/kg-air}
  0.008,                                  !- Zone Heating Design Supply Air Humidity Ratio {kg-H2O/kg-air}
  ,                                       !- Zone Heating Sizing Factor
  ,                                       !- Zone Cooling Sizing Factor
  DesignDay,                              !- Cooling Design Air Flow Method
  ,                                       !- Cooling Design Air Flow Rate {m3/s}
  ,                                       !- Cooling Minimum Air Flow per Zone Floor Area {m3/s-m2}
  ,                                       !- Cooling Minimum Air Flow {m3/s}
  ,                                       !- Cooling Minimum Air Flow Fraction
  DesignDay,                              !- Heating Design Air Flow Method
  ,                                       !- Heating Design Air Flow Rate {m3/s}
  ,                                       !- Heating Maximum Air Flow per Zone Floor Area {m3/s-m2}
  ,                                       !- Heating Maximum Air Flow {m3/s}
  ,                                       !- Heating Maximum Air Flow Fraction
  ,                                       !- Design Zone Air Distribution Effectiveness in Cooling Mode
  ,                                       !- Design Zone Air Distribution Effectiveness in Heating Mode
  No,                                     !- Account for Dedicated Outdoor Air System
  NeutralSupplyAir,                       !- Dedicated Outdoor Air System Control Strategy
  autosize,                               !- Dedicated Outdoor Air Low Setpoint Temperature for Design {C}
  autosize;                               !- Dedicated Outdoor Air High Setpoint Temperature for Design {C}

OS:ZoneHVAC:EquipmentList,
  {789556c4-68b5-4f85-b2ad-a8234835c8f8}, !- Handle
  Zone HVAC Equipment List 1,             !- Name
  {282d3ec8-ac31-407f-a740-a4d2de6e0514}, !- Thermal Zone
  {648de23e-30ca-462a-8cf2-d1e40a76c35f}, !- Zone Equipment 1
  1,                                      !- Zone Equipment Cooling Sequence 1
  1;                                      !- Zone Equipment Heating or No-Load Sequence 1

OS:Space,
  {3c9cd782-853f-4bca-a55e-cf5f2be4145c}, !- Handle
  ZONE ONE Space,                         !- Name
  ,                                       !- Space Type Name
  ,                                       !- Default Construction Set Name
  ,                                       !- Default Schedule Set Name
  0,                                      !- Direction of Relative North {deg}
  0,                                      !- X Origin {m}
  0,                                      !- Y Origin {m}
  0,                                      !- Z Origin {m}
  ,                                       !- Building Story Name
  {282d3ec8-ac31-407f-a740-a4d2de6e0514}; !- Thermal Zone Name

OS:Surface,
  {1db172a1-4f92-464d-8765-8ccdd866177c}, !- Handle
  ZONE SURFACE ROOF,                      !- Name
  RoofCeiling,                            !- Surface Type
  {cb6197cd-9432-41aa-ae72-28f95d3640ef}, !- Construction Name
  {3c9cd782-853f-4bca-a55e-cf5f2be4145c}, !- Space Name
  Outdoors,                               !- Outside Boundary Condition
  ,                                       !- Outside Boundary Condition Object
  SunExposed,                             !- Sun Exposure
  WindExposed,                            !- Wind Exposure
  0,                                      !- View Factor to Ground
  ,                                       !- Number of Vertices
  8, 0, 2.7,                              !- X,Y,Z Vertex 1 {m}
  8, 6, 2.7,                              !- X,Y,Z Vertex 2 {m}
  0, 6, 2.7,                              !- X,Y,Z Vertex 3 {m}
  0, 0, 2.7;                              !- X,Y,Z Vertex 4 {m}

OS:Construction,
  {cb6197cd-9432-41aa-ae72-28f95d3640ef}, !- Handle
  ROOF,                                   !- Name
  ,                                       !- Surface Rendering Name
  {ee145ff9-c68b-41b4-a15d-bdd493c6452a}; !- Layer 1

OS:StandardsInformation:Construction,
  {f68bcacb-9690-40a1-871b-88b9e11d29c3}, !- Handle
  {cb6197cd-9432-41aa-ae72-28f95d3640ef}; !- Construction Name

OS:Material:NoMass,
  {ee145ff9-c68b-41b4-a15d-bdd493c6452a}, !- Handle
  INSULATION-Roof,                        !- Name
  VerySmooth,                             !- Roughness
  0.14,                                   !- Thermal Resistance {m2-K/W}
  1e-07,                                  !- Thermal Absorptance
  0,                                      !- Solar Absorptance
  0;                                      !- Visible Absorptance

OS:StandardsInformation:Material,
  {c0d2f627-2c14-4abd-b9e8-a0de30473f08}, !- Handle
  {ee145ff9-c68b-41b4-a15d-bdd493c6452a}; !- Material Name

OS:Surface,
  {709ae3d6-3df1-4708-8417-5d410dd69485}, !- Handle
  ZONE SURFACE FLOOR,                     !- Name
  Floor,                                  !- Surface Type
  {85ca1acb-b987-4ffe-afd5-21e440e3a5ba}, !- Construction Name
  {3c9cd782-853f-4bca-a55e-cf5f2be4145c}, !- Space Name
  Outdoors,                               !- Outside Boundary Condition
  ,                                       !- Outside Boundary Condition Object
  SunExposed,                             !- Sun Exposure
  WindExposed,                            !- Wind Exposure
  0,                                      !- View Factor to Ground
  ,                                       !- Number of Vertices
  8, 6, 0,                                !- X,Y,Z Vertex 1 {m}
  8, 0, 0,                                !- X,Y,Z Vertex 2 {m}
  0, 0, 0,                                !- X,Y,Z Vertex 3 {m}
  0, 6, 0;                                !- X,Y,Z Vertex 4 {m}

OS:Construction,
  {85ca1acb-b987-4ffe-afd5-21e440e3a5ba}, !- Handle
  WALL-FLOOR,                             !- Name
  ,                                       !- Surface Rendering Name
  {689dc497-93fe-48be-ab6d-46370bdec667}; !- Layer 1

OS:StandardsInformation:Construction,
  {4fd78b8e-8953-47f8-be7d-cfecd1d5e740}, !- Handle
  {85ca1acb-b987-4ffe-afd5-21e440e3a5ba}; !- Construction Name

OS:Material:NoMass,
  {689dc497-93fe-48be-ab6d-46370bdec667}, !- Handle
  INSULATION-Wall-Floor,                  !- Name
  VerySmooth,                             !- Roughness
  100,                                    !- Thermal Resistance {m2-K/W}
  1e-07,                                  !- Thermal Absorptance
  0,                                      !- Solar Absorptance
  0;                                      !- Visible Absorptance

OS:StandardsInformation:Material,
  {d70dbf1e-4be2-4214-8376-a82457dac5d7}, !- Handle
  {689dc497-93fe-48be-ab6d-46370bdec667}; !- Material Name

OS:Surface,
  {d858fff5-8d9d-4de4-9e8c-700a5359780a}, !- Handle
  ZONE SURFACE EAST,                      !- Name
  Wall,                                   !- Surface Type
  {85ca1acb-b987-4ffe-afd5-21e440e3a5ba}, !- Construction Name
  {3c9cd782-853f-4bca-a55e-cf5f2be4145c}, !- Space Name
  Outdoors,                               !- Outside Boundary Condition
  ,                                       !- Outside Boundary Condition Object
  SunExposed,                             !- Sun Exposure
  WindExposed,                            !- Wind Exposure
  0,                                      !- View Factor to Ground
  ,                                       !- Number of Vertices
  8, 0, 2.7,                              !- X,Y,Z Vertex 1 {m}
  8, 0, 0,                                !- X,Y,Z Vertex 2 {m}
  8, 6, 0,                                !- X,Y,Z Vertex 3 {m}
  8, 6, 2.7;                              !- X,Y,Z Vertex 4 {m}

OS:Surface,
  {ba87394d-effb-4e0e-8453-7a5ec965854f}, !- Handle
  ZONE SURFACE SOUTH,                     !- Name
  Wall,                                   !- Surface Type
  {85ca1acb-b987-4ffe-afd5-21e440e3a5ba}, !- Construction Name
  {3c9cd782-853f-4bca-a55e-cf5f2be4145c}, !- Space Name
  Outdoors,                               !- Outside Boundary Condition
  ,                                       !- Outside Boundary Condition Object
  SunExposed,                             !- Sun Exposure
  WindExposed,                            !- Wind Exposure
  0,                                      !- View Factor to Ground
  ,                                       !- Number of Vertices
  0, 0, 2.7,                              !- X,Y,Z Vertex 1 {m}
  0, 0, 0,                                !- X,Y,Z Vertex 2 {m}
  8, 0, 0,                                !- X,Y,Z Vertex 3 {m}
  8, 0, 2.7;                              !- X,Y,Z Vertex 4 {m}

OS:Surface,
  {f2193db3-2f58-4397-9df4-28c3385e84e8}, !- Handle
  ZONE SURFACE NORTH,                     !- Name
  Wall,                                   !- Surface Type
  {85ca1acb-b987-4ffe-afd5-21e440e3a5ba}, !- Construction Name
  {3c9cd782-853f-4bca-a55e-cf5f2be4145c}, !- Space Name
  Outdoors,                               !- Outside Boundary Condition
  ,                                       !- Outside Boundary Condition Object
  SunExposed,                             !- Sun Exposure
  WindExposed,                            !- Wind Exposure
  0,                                      !- View Factor to Ground
  ,                                       !- Number of Vertices
  8, 6, 2.7,                              !- X,Y,Z Vertex 1 {m}
  8, 6, 0,                                !- X,Y,Z Vertex 2 {m}
  0, 6, 0,                                !- X,Y,Z Vertex 3 {m}
  0, 6, 2.7;                              !- X,Y,Z Vertex 4 {m}

OS:Surface,
  {2f614950-0ab8-47d6-bbc6-bc54e7c374ad}, !- Handle
  ZONE SURFACE WEST,                      !- Name
  Wall,                                   !- Surface Type
  {85ca1acb-b987-4ffe-afd5-21e440e3a5ba}, !- Construction Name
  {3c9cd782-853f-4bca-a55e-cf5f2be4145c}, !- Space Name
  Outdoors,                               !- Outside Boundary Condition
  ,                                       !- Outside Boundary Condition Object
  SunExposed,                             !- Sun Exposure
  WindExposed,                            !- Wind Exposure
  0,                                      !- View Factor to Ground
  ,                                       !- Number of Vertices
  0, 6, 2.7,                              !- X,Y,Z Vertex 1 {m}
  0, 6, 0,                                !- X,Y,Z Vertex 2 {m}
  0, 0, 0,                                !- X,Y,Z Vertex 3 {m}
  0, 0, 2.7;                              !- X,Y,Z Vertex 4 {m}

OS:SurfaceProperty:ConvectionCoefficients:MultipleSurface,
  {e8c14e77-2939-47c6-b19d-62c199be6405}, !- Handle
  AllExteriorWalls,                       !- Surface Type
  Inside,                                 !- Convection Coefficient 1 Location
  Value,                                  !- Convection Coefficient 1 Type
  0.1,                                    !- Convection Coefficient 1 {W/m2-K}
  ,                                       !- Convection Coefficient 1 Schedule Name
  ,                                       !- Convection Coefficient 1 User Curve Name
  Outside,                                !- Convection Coefficient 2 Location
  Value,                                  !- Convection Coefficient 2 Type
  1e-07;                                  !- Convection Coefficient 2 {W/m2-K}

OS:SurfaceProperty:ConvectionCoefficients:MultipleSurface,
  {fea8269e-1ab0-47ba-90e0-05bd749e122a}, !- Handle
  AllExteriorRoofs,                       !- Surface Type
  Inside,                                 !- Convection Coefficient 1 Location
  Value,                                  !- Convection Coefficient 1 Type
  20,                                     !- Convection Coefficient 1 {W/m2-K}
  ,                                       !- Convection Coefficient 1 Schedule Name
  ,                                       !- Convection Coefficient 1 User Curve Name
  Outside,                                !- Convection Coefficient 2 Location
  Value,                                  !- Convection Coefficient 2 Type
  20;                                     !- Convection Coefficient 2 {W/m2-K}

OS:Schedule:Ruleset,
  {451154cc-20f4-43f1-a08a-a51e892c49f1}, !- Handle
  No Cooling,                             !- Name
  {1e0d72d7-b86d-4eb8-9613-698bd7fe7df0}, !- Schedule Type Limits Name
  {65c1b12a-4aef-4d31-be8b-0eaa44e75fe1}; !- Default Day Schedule Name

OS:ScheduleTypeLimits,
  {1e0d72d7-b86d-4eb8-9613-698bd7fe7df0}, !- Handle
  Temperature,                            !- Name
  ,                                       !- Lower Limit Value
  ,                                       !- Upper Limit Value
  Continuous,                             !- Numeric Type
  Temperature;                            !- Unit Type

OS:Schedule:Day,
  {65c1b12a-4aef-4d31-be8b-0eaa44e75fe1}, !- Handle
  Schedule Day 5,                         !- Name
  {1e0d72d7-b86d-4eb8-9613-698bd7fe7df0}, !- Schedule Type Limits Name
  ,                                       !- Interpolate to Timestep
  24,                                     !- Hour 1
  0,                                      !- Minute 1
  100;                                    !- Value Until Time 1

OS:Schedule:Constant,
  {5d220fea-bb52-4f82-a093-ab93ee9940d5}, !- Handle
  20.0 C,                                 !- Name
  {1e0d72d7-b86d-4eb8-9613-698bd7fe7df0}, !- Schedule Type Limits Name
  20;                                     !- Value

OS:ThermostatSetpoint:DualSetpoint,
  {a5f64ce3-4378-493c-a6e0-b7c2ea79ec06}, !- Handle
  Thermostat Setpoint Dual Setpoint 1,    !- Name
  {5d220fea-bb52-4f82-a093-ab93ee9940d5}, !- Heating Setpoint Temperature Schedule Name
  {451154cc-20f4-43f1-a08a-a51e892c49f1}; !- Cooling Setpoint Temperature Schedule Name

OS:Schedule:Constant,
  {d81b9eec-2984-4fc2-80da-4f9e257d8bb0}, !- Handle
  Always On Discrete,                     !- Name
  {6892b527-b091-41f0-975a-ee2d0675ed02}, !- Schedule Type Limits Name
  1;                                      !- Value

OS:ScheduleTypeLimits,
  {6892b527-b091-41f0-975a-ee2d0675ed02}, !- Handle
  OnOff,                                  !- Name
  0,                                      !- Lower Limit Value
  1,                                      !- Upper Limit Value
  Discrete,                               !- Numeric Type
  Availability;                           !- Unit Type

OS:Schedule:Constant,
  {323e224b-236e-42bb-9063-c77c450b8f5f}, !- Handle
  Always Off Discrete,                    !- Name
  {86778aa1-ea1c-4969-98ea-a8841916ef1d}, !- Schedule Type Limits Name
  0;                                      !- Value

OS:ScheduleTypeLimits,
  {86778aa1-ea1c-4969-98ea-a8841916ef1d}, !- Handle
  OnOff 1,                                !- Name
  0,                                      !- Lower Limit Value
  1,                                      !- Upper Limit Value
  Discrete,                               !- Numeric Type
  Availability;                           !- Unit Type

OS:AirLoopHVAC,
  {8be91400-f1f0-4eec-81d4-7d6734051d3c}, !- Handle
  BESTEST HE air loop,                    !- Name
  ,                                       !- Controller List Name
  {d81b9eec-2984-4fc2-80da-4f9e257d8bb0}, !- Availability Schedule
  ,                                       !- Availability Manager
  0.355,                                  !- Design Supply Air Flow Rate {m3/s}
  ,                                       !- Branch List Name
  ,                                       !- Connector List Name
  {c98bc587-680e-4897-a87c-5905febf0aab}, !- Supply Side Inlet Node Name
  {8f7a3dcb-1817-47da-8bb7-4ac9d4bf216c}, !- Demand Side Outlet Node Name
  {3bf3acf7-cd33-45f7-b9c7-c451a37f6ede}, !- Demand Side Inlet Node A
  {fd87dafc-d2d4-4210-b288-0182ebf39f45}, !- Supply Side Outlet Node A
  ,                                       !- Demand Side Inlet Node B
  ;                                       !- Supply Side Outlet Node B

OS:Node,
  {7c7c980f-9384-41e0-ae80-dfc53d3d1e38}, !- Handle
  Node 2,                                 !- Name
  {c98bc587-680e-4897-a87c-5905febf0aab}, !- Inlet Port
  {d66ebe9d-7598-4557-9f02-bb762c3b02bf}; !- Outlet Port

OS:Node,
  {43046973-fd31-4719-a840-662f9f4cc770}, !- Handle
  Node 3,                                 !- Name
  {fdcb2bc8-ebf5-4bb9-b1e9-2eb1059b9b9a}, !- Inlet Port
  {fd87dafc-d2d4-4210-b288-0182ebf39f45}; !- Outlet Port

OS:Connection,
  {c98bc587-680e-4897-a87c-5905febf0aab}, !- Handle
  {3e51e383-4529-41ca-ae39-c955025f470c}, !- Name
  {8be91400-f1f0-4eec-81d4-7d6734051d3c}, !- Source Object
  8,                                      !- Outlet Port
  {7c7c980f-9384-41e0-ae80-dfc53d3d1e38}, !- Target Object
  2;                                      !- Inlet Port

OS:Connection,
  {fd87dafc-d2d4-4210-b288-0182ebf39f45}, !- Handle
  {4ce6b123-c58c-476d-ba2c-639230474a98}, !- Name
  {43046973-fd31-4719-a840-662f9f4cc770}, !- Source Object
  3,                                      !- Outlet Port
  {8be91400-f1f0-4eec-81d4-7d6734051d3c}, !- Target Object
  11;                                     !- Inlet Port

OS:Node,
  {0874998e-6681-44fc-835e-3bef0baa3789}, !- Handle
  Node 4,                                 !- Name
  {3bf3acf7-cd33-45f7-b9c7-c451a37f6ede}, !- Inlet Port