
OS:Version,
  {ebe9b1b5-a171-400c-820f-a89f65b4d3f6}, !- Handle
  1.12.1;                                 !- Version Identifier

OS:Site,
  {bc874655-a927-4872-a278-1347186bb1d9}, !- Handle
  Denver-Stapleton_CO_USA,                !- Name
  39.76,                                  !- Latitude {deg}
  -104.86,                                !- Longitude {deg}
  -7,                                     !- Time Zone {hr}
  1611,                                   !- Elevation {m}
  Country;                                !- Terrain

OS:YearDescription,
  {9116ce1c-534f-4b3a-9d15-2bb1a805c7e1}, !- Handle
  ,                                       !- Calendar Year
  ;                                       !- Day of Week for Start Day

OS:ClimateZones,
  {dd268d6b-2da7-4abc-b8ad-35d0988c56cd}, !- Handle
  ,                                       !- Active Institution
  ,                                       !- Active Year
  ASHRAE,                                 !- Climate Zone Institution Name 1
  ANSI/ASHRAE Standard 169,               !- Climate Zone Document Name 1
  2006,                                   !- Climate Zone Document Year 1
  ,                                       !- Climate Zone Value 1
  CEC,                                    !- Climate Zone Institution Name 2
  California Climate Zone Descriptions,   !- Climate Zone Document Name 2
  1995,                                   !- Climate Zone Document Year 2
  ;                                       !- Climate Zone Value 2

OS:Facility,
  {01cd2b0a-8ee0-4ab6-a2fb-9f6c7d21094d}; !- Handle

OS:SimulationControl,
  {30e9303f-ed23-491c-b310-8ef7274e967f}, !- Handle
  ,                                       !- Do Zone Sizing Calculation
  ,                                       !- Do System Sizing Calculation
  ,                                       !- Do Plant Sizing Calculation
  No,                                     !- Run Simulation for Sizing Periods
  ,                                       !- Run Simulation for Weather File Run Periods
  ,                                       !- Loads Convergence Tolerance Value
  ,                                       !- Temperature Convergence Tolerance Value {deltaC}
  FullInteriorAndExterior,                !- Solar Distribution
  ,                                       !- Maximum Number of Warmup Days
  6;                                      !- Minimum Number of Warmup Days

OS:Sizing:Parameters,
  {c983733e-8a2d-428d-8380-a9c380f3d01c}, !- Handle
  1.25,                                   !- Heating Sizing Factor
  1.15;                                   !- Cooling Sizing Factor

OS:Timestep,
  {7a470c9d-4813-47b4-b276-325100b7b62f}, !- Handle
  6;                                      !- Number of Timesteps per Hour

OS:ShadowCalculation,
  {21696cf9-7a12-43bf-ac4c-50d1be8bf2fd}, !- Handle
  20,                                     !- Calculation Frequency
  15000;                                  !- Maximum Figures in Shadow Overlap Calculations

OS:HeatBalanceAlgorithm,
  {09f4a614-27ba-43a9-a0ac-4379e03c44e8}, !- Handle
  ConductionTransferFunction,             !- Algorithm
  200;                                    !- Surface Temperature Upper Limit {C}

OS:RunPeriod,
  {322b0b21-e55e-459f-b4f2-853d2d37fd9a}, !- Handle
  Run Period 1,                           !- Name
  1,                                      !- Begin Month
  1,                                      !- Begin Day of Month
  12,                                     !- End Month
  31,                                     !- End Day of Month
  ,                                       !- Use Weather File Holidays and Special Days
  ,                                       !- Use Weather File Daylight Saving Period
  ,                                       !- Apply Weekend Holiday Rule
  ,                                       !- Use Weather File Rain Indicators
  ,                                       !- Use Weather File Snow Indicators
  ;                                       !- Number of Times Runperiod to be Repeated

OS:LifeCycleCost:Parameters,
  {a8ce31c8-7533-4ad7-aa7a-5380b4197455}, !- Handle
  ,                                       !- Analysis Type
  ,                                       !- Discounting Convention
  ,                                       !- Inflation Approach
  ,                                       !- Real Discount Rate
  ,                                       !- Nominal Discount Rate
  ,                                       !- Inflation
  ,                                       !- Base Date Month
  ,                                       !- Base Date Year
  ,                                       !- Service Date Month
  ,                                       !- Service Date Year
  ;                                       !- Length of Study Period in Years

OS:SurfaceConvectionAlgorithm:Inside,
  {0ab78e07-68b3-4876-9955-4bf38b2df023}, !- Handle
  TARP;                                   !- Algorithm

OS:SurfaceConvectionAlgorithm:Outside,
  {8f97b60e-d3f2-479a-bef8-36ec41edf53e}, !- Handle
  DOE-2;                                  !- Algorithm

OS:WeatherFile,
  {3474783b-df55-4dd8-9d52-4deb88972d73}, !- Handle
  Denver-Stapleton,                       !- City
  CO,                                     !- State Province Region
  USA,                                    !- Country
  TMY--23062,                             !- Data Source
  724690,                                 !- WMO Number
  39.76,                                  !- Latitude {deg}
  -104.86,                                !- Longitude {deg}
  -7,                                     !- Time Zone {hr}
  1611,                                   !- Elevation {m}
  file:///Users/dgoldwas/Documents/GitHub/OSEP_BESTTEST/measures/bestest_building_thermal_envelope_and_fabric_load_tests/resources/DRYCOLDTMY.epw, !- Url
  08DEB5B3;                               !- Checksum

OS:Building,
  {1f53cc9d-6bf9-40d3-ac1c-5a9f30808f16}, !- Handle
  BESTEST Case 600 - Base Case,           !- Name
  ,                                       !- Building Sector Type
  0,                                      !- North Axis {deg}
  ,                                       !- Nominal Floor to Floor Height {m}
  ,                                       !- Space Type Name
  {ea307dcd-c66e-412b-9661-e13d90e92868}, !- Default Construction Set Name
  ,                                       !- Default Schedule Set Name
  ,                                       !- Standards Number of Stories
  ,                                       !- Standards Number of Above Ground Stories
  ,                                       !- Standards Building Type
  ,                                       !- Standards Number of Living Units
  ,                                       !- Relocatable
  ;                                       !- Nominal Floor to Ceiling Height {m}

OS:ThermalZone,
  {4e6122ff-8fb6-4389-b1a0-0f274e7019f6}, !- Handle
  ZONE ONE,                               !- Name
  1,                                      !- Multiplier
  2.7,                                    !- Ceiling Height {m}
  129.6,                                  !- Volume {m3}
  ,                                       !- Floor Area {m2}
  ,                                       !- Zone Inside Convection Algorithm
  ,                                       !- Zone Outside Convection Algorithm
  ,                                       !- Zone Conditioning Equipment List Name
  {3662f5c0-eed3-4f9b-9ecc-54d4569ea8ca}, !- Zone Air Inlet Port List
  {f7050e97-9f58-419b-9658-8504c083bcf4}, !- Zone Air Exhaust Port List
  {86b5d3c7-2f07-4210-a873-8d8fe8be6c66}, !- Zone Air Node Name
  ,                                       !- Zone Return Air Node Name
  ,                                       !- Primary Daylighting Control Name
  ,                                       !- Fraction of Zone Controlled by Primary Daylighting Control
  ,                                       !- Secondary Daylighting Control Name
  ,                                       !- Fraction of Zone Controlled by Secondary Daylighting Control
  ,                                       !- Illuminance Map Name
  {8fb369ac-44ae-4138-a736-ade5da6e0cc2}, !- Group Rendering Name
  {2659f000-0359-4cda-8248-7f99be84548a}, !- Thermostat Name
  Yes,                                    !- Use Ideal Air Loads
  ;                                       !- Humidistat Name

OS:Rendering:Color,
  {8fb369ac-44ae-4138-a736-ade5da6e0cc2}, !- Handle
  Rendering Color 5,                      !- Name
  210,                                    !- Rendering Red Value
  180,                                    !- Rendering Green Value
  140;                                    !- Rendering Blue Value

OS:Node,
  {ca1f666c-05aa-4475-ad11-ffacaca94521}, !- Handle
  Node 1,                                 !- Name
  {86b5d3c7-2f07-4210-a873-8d8fe8be6c66}, !- Inlet Port
  ;                                       !- Outlet Port

OS:Connection,
  {86b5d3c7-2f07-4210-a873-8d8fe8be6c66}, !- Handle
  {11fcd2e3-8e34-4960-9d45-dc3a90db4d0d}, !- Name
  {4e6122ff-8fb6-4389-b1a0-0f274e7019f6}, !- Source Object
  11,                                     !- Outlet Port
  {ca1f666c-05aa-4475-ad11-ffacaca94521}, !- Target Object
  2;                                      !- Inlet Port

OS:PortList,
  {3662f5c0-eed3-4f9b-9ecc-54d4569ea8ca}, !- Handle
  Port List 1,                            !- Name
  {4e6122ff-8fb6-4389-b1a0-0f274e7019f6}; !- HVAC Component

OS:PortList,
  {f7050e97-9f58-419b-9658-8504c083bcf4}, !- Handle
  Port List 2,                            !- Name
  {4e6122ff-8fb6-4389-b1a0-0f274e7019f6}; !- HVAC Component

OS:Sizing:Zone,
  {acb78f12-a71e-49a1-8f80-0ac65cb020c7}, !- Handle
  {4e6122ff-8fb6-4389-b1a0-0f274e7019f6}, !- Zone or ZoneList Name
  SupplyAirTemperature,                   !- Zone Cooling Design Supply Air Temperature Input Method
  14,                                     !- Zone Cooling Design Supply Air Temperature {C}
  11.11,                                  !- Zone Cooling Design Supply Air Temperature Difference {deltaC}
  SupplyAirTemperature,                   !- Zone Heating Design Supply Air Temperature Input Method
  40,                                     !- Zone Heating Design Supply Air Temperature {C}
  11.11,                                  !- Zone Heating Design Supply Air Temperature Difference {deltaC}
  0.0085,                                 !- Zone Cooling Design Supply Air Humidity Ratio {kg-H2O/kg-air}
  0.008,                                  !- Zone Heating Design Supply Air Humidity Ratio {kg-H2O/kg-air}
  ,                                       !- Zone Heating Sizing Factor
  ,                                       !- Zone Cooling Sizing Factor
  DesignDay,                              !- Cooling Design Air Flow Method
  ,                                       !- Cooling Design Air Flow Rate {m3/s}
  ,                                       !- Cooling Minimum Air Flow per Zone Floor Area {m3/s-m2}
  ,                                       !- Cooling Minimum Air Flow {m3/s}
  ,                                       !- Cooling Minimum Air Flow Fraction
  DesignDay,                              !- Heating Design Air Flow Method
  ,                                       !- Heating Design Air Flow Rate {m3/s}
  ,                                       !- Heating Maximum Air Flow per Zone Floor Area {m3/s-m2}
  ,                                       !- Heating Maximum Air Flow {m3/s}
  ,                                       !- Heating Maximum Air Flow Fraction
  ,                                       !- Design Zone Air Distribution Effectiveness in Cooling Mode
  ,                                       !- Design Zone Air Distribution Effectiveness in Heating Mode
  No,                                     !- Account for Dedicated Outdoor Air System
  NeutralSupplyAir,                       !- Dedicated Outdoor Air System Control Strategy
  autosize,                               !- Dedicated Outdoor Air Low Setpoint Temperature for Design {C}
  autosize;                               !- Dedicated Outdoor Air High Setpoint Temperature for Design {C}

OS:ZoneHVAC:EquipmentList,
  {1d715f75-c87a-4de5-8133-7c8559f7e40b}, !- Handle
  Zone HVAC Equipment List 1,             !- Name
  {4e6122ff-8fb6-4389-b1a0-0f274e7019f6}; !- Thermal Zone

OS:Schedule:Year,
  {7aba21c7-16cf-45a2-a775-c0d3950cbc00}, !- Handle
  Heating Setpoints,                      !- Name
  {c1a87a6d-a2fa-49bf-8923-bb7565f14d76}, !- Schedule Type Limits Name
  12,                                     !- Month 1
  31,                                     !- Day 1
  {d74b71ae-a896-493f-9e11-47cd3e6f8861}; !- Week Schedule Until Date 1

OS:Schedule:Year,
  {9fcf7b50-c94e-4592-9da8-e416072f2192}, !- Handle
  Cooling Setpoints,                      !- Name
  {c1a87a6d-a2fa-49bf-8923-bb7565f14d76}, !- Schedule Type Limits Name
  12,                                     !- Month 1
  31,                                     !- Day 1
  {def631f0-b208-4aad-9524-4fc968b50643}; !- Week Schedule Until Date 1

OS:ScheduleTypeLimits,
  {c1a87a6d-a2fa-49bf-8923-bb7565f14d76}, !- Handle
  Temperature,                            !- Name
  -60,                                    !- Lower Limit Value
  200,                                    !- Upper Limit Value
  Continuous,                             !- Numeric Type
  Temperature;                            !- Unit Type

OS:Schedule:Week,
  {d74b71ae-a896-493f-9e11-47cd3e6f8861}, !- Handle
  Zone Heating Setpoint All Weeks,        !- Name
  ,                                       !- Schedule Rendering Name
  {1976dd80-ce73-41ea-94cc-970ba2a3a501}, !- Sunday Schedule:Day Name
  {1976dd80-ce73-41ea-94cc-970ba2a3a501}, !- Monday Schedule:Day Name
  {1976dd80-ce73-41ea-94cc-970ba2a3a501}, !- Tuesday Schedule:Day Name
  {1976dd80-ce73-41ea-94cc-970ba2a3a501}, !- Wednesday Schedule:Day Name
  {1976dd80-ce73-41ea-94cc-970ba2a3a501}, !- Thursday Schedule:Day Name
  {1976dd80-ce73-41ea-94cc-970ba2a3a501}, !- Friday Schedule:Day Name
  {1976dd80-ce73-41ea-94cc-970ba2a3a501}, !- Saturday Schedule:Day Name
  {1976dd80-ce73-41ea-94cc-970ba2a3a501}, !- Holiday Schedule:Day Name
  {1976dd80-ce73-41ea-94cc-970ba2a3a501}, !- SummerDesignDay Schedule:Day Name
  {1976dd80-ce73-41ea-94cc-970ba2a3a501}, !- WinterDesignDay Schedule:Day Name
  {1976dd80-ce73-41ea-94cc-970ba2a3a501}, !- CustomDay1 Schedule:Day Name
  {1976dd80-ce73-41ea-94cc-970ba2a3a501}; !- CustomDay2 Schedule:Day Name

OS:Schedule:Week,
  {def631f0-b208-4aad-9524-4fc968b50643}, !- Handle
  Zone Cooling Setpoint All Weeks,        !- Name
  ,                                       !- Schedule Rendering Name
  {9095e3e1-9586-4331-b7b7-3006804d4cba}, !- Sunday Schedule:Day Name
  {9095e3e1-9586-4331-b7b7-3006804d4cba}, !- Monday Schedule:Day Name
  {9095e3e1-9586-4331-b7b7-3006804d4cba}, !- Tuesday Schedule:Day Name
  {9095e3e1-9586-4331-b7b7-3006804d4cba}, !- Wednesday Schedule:Day Name
  {9095e3e1-9586-4331-b7b7-3006804d4cba}, !- Thursday Schedule:Day Name
  {9095e3e1-9586-4331-b7b7-3006804d4cba}, !- Friday Schedule:Day Name
  {9095e3e1-9586-4331-b7b7-3006804d4cba}, !- Saturday Schedule:Day Name
  {9095e3e1-9586-4331-b7b7-3006804d4cba}, !- Holiday Schedule:Day Name
  {9095e3e1-9586-4331-b7b7-3006804d4cba}, !- SummerDesignDay Schedule:Day Name
  {9095e3e1-9586-4331-b7b7-3006804d4cba}, !- WinterDesignDay Schedule:Day Name
  {9095e3e1-9586-4331-b7b7-3006804d4cba}, !- CustomDay1 Schedule:Day Name
  {9095e3e1-9586-4331-b7b7-3006804d4cba}; !- CustomDay2 Schedule:Day Name

OS:Schedule:Day,
  {1976dd80-ce73-41ea-94cc-970ba2a3a501}, !- Handle
  Zone Heating Setpoint All Days,         !- Name
  {c1a87a6d-a2fa-49bf-8923-bb7565f14d76}, !- Schedule Type Limits Name
  ,                                       !- Interpolate to Timestep
  1,                                      !- Hour 1
  0,                                      !- Minute 1
  20,                                     !- Value Until Time 1
  2,                                      !- Hour 2
  0,                                      !- Minute 2
  20,                                     !- Value Until Time 2
  3,                                      !- Hour 3
  0,                                      !- Minute 3
  20,                                     !- Value Until Time 3
  4,                                      !- Hour 4
  0,                                      !- Minute 4
  20,                                     !- Value Until Time 4
  5,                                      !- Hour 5
  0,                                      !- Minute 5
  20,                                     !- Value Until Time 5
  6,                                      !- Hour 6
  0,                                      !- Minute 6
  20,                                     !- Value Until Time 6
  7,                                      !- Hour 7
  0,                                      !- Minute 7
  20,                                     !- Value Until Time 7
  8,                                      !- Hour 8
  0,                                      !- Minute 8
  20,                                     !- Value Until Time 8
  9,                                      !- Hour 9
  0,                                      !- Minute 9
  20,                                     !- Value Until Time 9
  10,                                     !- Hour 10
  0,                                      !- Minute 10
  20,                                     !- Value Until Time 10
  11,                                     !- Hour 11
  0,                                      !- Minute 11
  20,                                     !- Value Until Time 11
  12,                                     !- Hour 12
  0,                                      !- Minute 12
  20,                                     !- Value Until Time 12
  13,                                     !- Hour 13
  0,                                      !- Minute 13
  20,                                     !- Value Until Time 13
  14,                                     !- Hour 14
  0,                                      !- Minute 14
  20,                                     !- Value Until Time 14
  15,                                     !- Hour 15
  0,                                      !- Minute 15
  20,                                     !- Value Until Time 15
  16,                                     !- Hour 16
  0,                                      !- Minute 16
  20,                                     !- Value Until Time 16
  17,                                     !- Hour 17
  0,                                      !- Minute 17
  20,                                     !- Value Until Time 17
  18,                                     !- Hour 18
  0,                                      !- Minute 18
  20,                                     !- Value Until Time 18
  19,                                     !- Hour 19
  0,                                      !- Minute 19
  20,                                     !- Value Until Time 19
  20,                                     !- Hour 20
  0,                                      !- Minute 20
  20,                                     !- Value Until Time 20
  21,                                     !- Hour 21
  0,                                      !- Minute 21
  20,                                     !- Value Until Time 21
  22,                                     !- Hour 22
  0,                                      !- Minute 22
  20,                                     !- Value Until Time 22
  23,                                     !- Hour 23
  0,                                      !- Minute 23
  20,                                     !- Value Until Time 23
  24,                                     !- Hour 24
  0,                                      !- Minute 24
  20;                                     !- Value Until Time 24

OS:Schedule:Day,
  {9095e3e1-9586-4331-b7b7-3006804d4cba}, !- Handle
  Zone Cooling Setpoint All Days,         !- Name
  {c1a87a6d-a2fa-49bf-8923-bb7565f14d76}, !- Schedule Type Limits Name
  ,                                       !- Interpolate to Timestep
  1,                                      !- Hour 1
  0,                                      !- Minute 1
  27,                                     !- Value Until Time 1
  2,                                      !- Hour 2
  0,                                      !- Minute 2
  27,                                     !- Value Until Time 2
  3,                                      !- Hour 3
  0,                                      !- Minute 3
  27,                                     !- Value Until Time 3
  4,                                      !- Hour 4
  0,                                      !- Minute 4
  27,                                     !- Value Until Time 4
  5,                                      !- Hour 5
  0,                                      !- Minute 5
  27,                                     !- Value Until Time 5
  6,                                      !- Hour 6
  0,                                      !- Minute 6
  27,                                     !- Value Until Time 6
  7,                                      !- Hour 7
  0,                                      !- Minute 7
  27,                                     !- Value Until Time 7
  8,                                      !- Hour 8
  0,                                      !- Minute 8
  27,                                     !- Value Until Time 8
  9,                                      !- Hour 9
  0,                                      !- Minute 9
  27,                                     !- Value Until Time 9
  10,                                     !- Hour 10
  0,                                      !- Minute 10
  27,                                     !- Value Until Time 10
  11,                                     !- Hour 11
  0,                                      !- Minute 11
  27,                                     !- Value Until Time 11
  12,                                     !- Hour 12
  0,                                      !- Minute 12
  27,                                     !- Value Until Time 12
  13,                                     !- Hour 13
  0,                                      !- Minute 13
  27,                                     !- Value Until Time 13
  14,                                     !- Hour 14
  0,                                      !- Minute 14
  27,                                     !- Value Until Time 14
  15,                                     !- Hour 15
  0,                                      !- Minute 15
  27,                                     !- Value Until Time 15
  16,                                     !- Hour 16
  0,                                      !- Minute 16
  27,                                     !- Value Until Time 16
  17,                                     !- Hour 17
  0,                                      !- Minute 17
  27,                                     !- Value Until Time 17
  18,                                     !- Hour 18
  0,                                      !- Minute 18
  27,                                     !- Value Until Time 18
  19,                                     !- Hour 19
  0,                                      !- Minute 19
  27,                                     !- Value Until Time 19
  20,                                     !- Hour 20
  0,                                      !- Minute 20
  27,                                     !- Value Until Time 20
  21,                                     !- Hour 21
  0,                                      !- Minute 21
  27,                                     !- Value Until Time 21
  22,                                     !- Hour 22
  0,                                      !- Minute 22
  27,                                     !- Value Until Time 22
  23,                                     !- Hour 23
  0,                                      !- Minute 23
  27,                                     !- Value Until Time 23
  24,                                     !- Hour 24
  0,                                      !- Minute 24
  27;                                     !- Value Until Time 24

OS:Space,
  {0a1cabef-7416-4a5b-baab-efa0649d5df1}, !- Handle
  ZONE ONE Space,                         !- Name
  ,                                       !- Space Type Name
  ,                                       !- Default Construction Set Name
  ,                                       !- Default Schedule Set Name
  0,                                      !- Direction of Relative North {deg}
  0,                                      !- X Origin {m}
  0,                                      !- Y Origin {m}
  0,                                      !- Z Origin {m}
  ,                                       !- Building Story Name
  {4e6122ff-8fb6-4389-b1a0-0f274e7019f6}, !- Thermal Zone Name
  ,                                       !- Part of Total Floor Area
  ;                                       !- Design Specification Outdoor Air Object Name

OS:Surface,
  {e370ad0d-d20b-404d-97fd-05b0397b16d4}, !- Handle
  ZONE SURFACE NORTH,                     !- Name
  Wall,                                   !- Surface Type
  ,                                       !- Construction Name
  {0a1cabef-7416-4a5b-baab-efa0649d5df1}, !- Space Name
  Outdoors,                               !- Outside Boundary Condition
  ,                                       !- Outside Boundary Condition Object
  SunExposed,                             !- Sun Exposure
  WindExposed,                            !- Wind Exposure
  0.5,                                    !- View Factor to Ground
  ,                                       !- Number of Vertices
  8, 6, 2.7,                              !- X,Y,Z Vertex 1 {m}
  8, 6, 0,                                !- X,Y,Z Vertex 2 {m}
  0, 6, 0,                                !- X,Y,Z Vertex 3 {m}
  0, 6, 2.7;                              !- X,Y,Z Vertex 4 {m}

OS:Surface,
  {a5817c23-f7fa-4d27-9dda-11d258237c45}, !- Handle
  ZONE SURFACE SOUTH,                     !- Name
  Wall,                                   !- Surface Type
  ,                                       !- Construction Name
  {0a1cabef-7416-4a5b-baab-efa0649d5df1}, !- Space Name
  Outdoors,                               !- Outside Boundary Condition
  ,                                       !- Outside Boundary Condition Object
  SunExposed,                             !- Sun Exposure
  WindExposed,                            !- Wind Exposure
  0.5,                                    !- View Factor to Ground
  ,                                       !- Number of Vertices
  0, 0, 2.7,                              !- X,Y,Z Vertex 1 {m}
  0, 0, 0,                                !- X,Y,Z Vertex 2 {m}
  8, 0, 0,                                !- X,Y,Z Vertex 3 {m}
  8, 0, 2.7;                              !- X,Y,Z Vertex 4 {m}

OS:SubSurface,
  {1a27d6e5-e820-4eab-b1b4-1ad60a92253e}, !- Handle
  ZONE SUBSURFACE 2,                      !- Name
  FixedWindow,                            !- Sub Surface Type
  ,                                       !- Construction Name
  {a5817c23-f7fa-4d27-9dda-11d258237c45}, !- Surface Name
  ,                                       !- Outside Boundary Condition Object
  0.5,                                    !- View Factor to Ground
  ,                                       !- Shading Control Name
  ,                                       !- Frame and Divider Name
  1,                                      !- Multiplier
  ,                                       !- Number of Vertices
  4.5, 0, 2.2,                            !- X,Y,Z Vertex 1 {m}
  4.5, 0, 0.2,                            !- X,Y,Z Vertex 2 {m}
  7.5, 0, 0.2,                            !- X,Y,Z Vertex 3 {m}
  7.5, 0, 2.2;                            !- X,Y,Z Vertex 4 {m}

OS:SubSurface,
  {11a41909-bde9-4dc1-afbf-2705b12eef4b}, !- Handle
  ZONE SUBSURFACE 1,                      !- Name
  FixedWindow,                            !- Sub Surface Type
  ,                                       !- Construction Name
  {a5817c23-f7fa-4d27-9dda-11d258237c45}, !- Surface Name
  ,                                       !- Outside Boundary Condition Object
  0.5,                                    !- View Factor to Ground
  ,                                       !- Shading Control Name
  ,                                       !- Frame and Divider Name
  1,                                      !- Multiplier
  ,                                       !- Number of Vertices
  0.5, 0, 2.2,                            !- X,Y,Z Vertex 1 {m}
  0.5, 0, 0.2,                            !- X,Y,Z Vertex 2 {m}
  3.5, 0, 0.2,                            !- X,Y,Z Vertex 3 {m}
  3.5, 0, 2.2;                            !- X,Y,Z Vertex 4 {m}

OS:Surface,
  {65592a64-bbd3-4b4a-a7cc-97173bbc2c06}, !- Handle
  ZONE SURFACE EAST,                      !- Name
  Wall,                                   !- Surface Type
  ,                                       !- Construction Name
  {0a1cabef-7416-4a5b-baab-efa0649d5df1}, !- Space Name
  Outdoors,                               !- Outside Boundary Condition
  ,                                       !- Outside Boundary Condition Object
  SunExposed,                             !- Sun Exposure
  WindExposed,                            !- Wind Exposure
  0.5,                                    !- View Factor to Ground
  ,                                       !- Number of Vertices
  8, 0, 2.7,                              !- X,Y,Z Vertex 1 {m}
  8, 0, 0,                                !- X,Y,Z Vertex 2 {m}
  8, 6, 0,                                !- X,Y,Z Vertex 3 {m}