
OS:Version,
  {715489b5-53ef-413d-a506-70a47b0743e4}, !- Handle
  1.10.6;                                 !- Version Identifier

OS:Site,
  {b0067d39-5e8e-4d84-9d41-81326bafb56c}, !- Handle
  GOLDEN COLORADO,                        !- Name
  39.8,                                   !- Latitude {deg}
  -104.9,                                 !- Longitude {deg}
  -7,                                     !- Time Zone {hr}
  1609,                                   !- Elevation {m}
  Country;                                !- Terrain

OS:ShadingSurface,
  {75b649f7-603e-43da-91dd-a452926769d0}, !- Handle
  EAST WINDOW RIGHT FIN,                  !- Name
  ,                                       !- Construction Name
  {f657ac13-964f-4e86-92f4-2af5efa3f945}, !- Shading Surface Group Name
  {2a4b980c-425b-48eb-b27d-72ac4748079b}, !- Transmittance Schedule Name
  ,                                       !- Number of Vertices
  8, 4.5, 2.7,                            !- X,Y,Z Vertex 1 {m}
  8, 4.5, 0,                              !- X,Y,Z Vertex 2 {m}
  9, 4.5, 0,                              !- X,Y,Z Vertex 3 {m}
  9, 4.5, 2.7;                            !- X,Y,Z Vertex 4 {m}

OS:Surface,
  {81f1b252-14ea-458b-a931-83fd1c38589d}, !- Handle
  ZONE SURFACE EAST,                      !- Name
  Wall,                                   !- Surface Type
  ,                                       !- Construction Name
  {747cf860-614d-4aff-9e97-5e313ad69fea}, !- Space Name
  Outdoors,                               !- Outside Boundary Condition
  ,                                       !- Outside Boundary Condition Object
  SunExposed,                             !- Sun Exposure
  WindExposed,                            !- Wind Exposure
  0.5,                                    !- View Factor to Ground
  ,                                       !- Number of Vertices
  8, 0, 2.7,                              !- X,Y,Z Vertex 1 {m}
  8, 0, 0,                                !- X,Y,Z Vertex 2 {m}
  8, 6, 0,                                !- X,Y,Z Vertex 3 {m}
  8, 6, 2.7;                              !- X,Y,Z Vertex 4 {m}

OS:ThermalZone,
  {9fc9d332-7642-4119-872e-98d81bab0a04}, !- Handle
  ZONE ONE Thermal Zone,                  !- Name
  1,                                      !- Multiplier
  2.7,                                    !- Ceiling Height {m}
  129.6,                                  !- Volume {m3}
  ,                                       !- Floor Area {m2}
  ,                                       !- Zone Inside Convection Algorithm
  ,                                       !- Zone Outside Convection Algorithm
  ,                                       !- Zone Conditioning Equipment List Name
  {98db8eb4-20c1-4246-afd2-cbc01b4c5cab}, !- Zone Air Inlet Port List
  {e2584146-2ebb-4af3-a3db-3c77ed6467f1}, !- Zone Air Exhaust Port List
  {2df00a3c-1761-4914-8054-fd8de46cf792}, !- Zone Air Node Name
  ,                                       !- Zone Return Air Node Name
  ,                                       !- Primary Daylighting Control Name
  ,                                       !- Fraction of Zone Controlled by Primary Daylighting Control
  ,                                       !- Secondary Daylighting Control Name
  ,                                       !- Fraction of Zone Controlled by Secondary Daylighting Control
  ,                                       !- Illuminance Map Name
  {0e1e259d-5e2a-4717-9424-0f83a28bdab6}, !- Group Rendering Name
  {180a3ef6-110b-41ec-b2ee-5924160d136b}, !- Thermostat Name
  No;                                     !- Use Ideal Air Loads

OS:Node,
  {8ca8fc3e-c336-4ff1-a9f5-c03307313a73}, !- Handle
  {1d9a0aa2-171a-4620-b890-cb4dee949f0b}, !- Name
  {2df00a3c-1761-4914-8054-fd8de46cf792}, !- Inlet Port
  ;                                       !- Outlet Port

OS:Connection,
  {2df00a3c-1761-4914-8054-fd8de46cf792}, !- Handle
  {23c41872-a55b-4978-8bc2-93d96e48251d}, !- Name
  {9fc9d332-7642-4119-872e-98d81bab0a04}, !- Source Object
  11,                                     !- Outlet Port
  {8ca8fc3e-c336-4ff1-a9f5-c03307313a73}, !- Target Object
  2;                                      !- Inlet Port

OS:PortList,
  {98db8eb4-20c1-4246-afd2-cbc01b4c5cab}, !- Handle
  {89a72d1e-b4a4-4ef6-9be1-f336aa66f629}, !- Name
  {9fc9d332-7642-4119-872e-98d81bab0a04}; !- HVAC Component

OS:PortList,
  {e2584146-2ebb-4af3-a3db-3c77ed6467f1}, !- Handle
  {5173ea90-1cdd-4c86-8af2-f4de4994be90}, !- Name
  {9fc9d332-7642-4119-872e-98d81bab0a04}; !- HVAC Component

OS:Sizing:Zone,
  {bf44093e-372f-49c8-aa33-1255a822522d}, !- Handle
  {9fc9d332-7642-4119-872e-98d81bab0a04}, !- Zone or ZoneList Name
  SupplyAirTemperature,                   !- Zone Cooling Design Supply Air Temperature Input Method
  14,                                     !- Zone Cooling Design Supply Air Temperature {C}
  11.11,                                  !- Zone Cooling Design Supply Air Temperature Difference {deltaC}
  SupplyAirTemperature,                   !- Zone Heating Design Supply Air Temperature Input Method
  40,                                     !- Zone Heating Design Supply Air Temperature {C}
  11.11,                                  !- Zone Heating Design Supply Air Temperature Difference {deltaC}
  0.0085,                                 !- Zone Cooling Design Supply Air Humidity Ratio {kg-H2O/kg-air}
  0.008,                                  !- Zone Heating Design Supply Air Humidity Ratio {kg-H2O/kg-air}
  ,                                       !- Zone Heating Sizing Factor
  ,                                       !- Zone Cooling Sizing Factor
  DesignDay,                              !- Cooling Design Air Flow Method
  ,                                       !- Cooling Design Air Flow Rate {m3/s}
  ,                                       !- Cooling Minimum Air Flow per Zone Floor Area {m3/s-m2}
  ,                                       !- Cooling Minimum Air Flow {m3/s}
  ,                                       !- Cooling Minimum Air Flow Fraction
  DesignDay,                              !- Heating Design Air Flow Method
  ,                                       !- Heating Design Air Flow Rate {m3/s}
  ,                                       !- Heating Maximum Air Flow per Zone Floor Area {m3/s-m2}
  ,                                       !- Heating Maximum Air Flow {m3/s}
  ,                                       !- Heating Maximum Air Flow Fraction
  ,                                       !- Design Zone Air Distribution Effectiveness in Cooling Mode
  ,                                       !- Design Zone Air Distribution Effectiveness in Heating Mode
  No,                                     !- Account for Dedicated Outdoor Air System
  NeutralSupplyAir,                       !- Dedicated Outdoor Air System Control Strategy
  autosize,                               !- Dedicated Outdoor Air Low Setpoint Temperature for Design {C}
  autosize;                               !- Dedicated Outdoor Air High Setpoint Temperature for Design {C}

OS:ZoneHVAC:EquipmentList,
  {30467cb7-e057-4233-826a-6dd5e662aed7}, !- Handle
  {8a867c81-7196-49b4-befc-77aa8aefbefe}, !- Name
  {9fc9d332-7642-4119-872e-98d81bab0a04}; !- Thermal Zone

OS:Space,
  {747cf860-614d-4aff-9e97-5e313ad69fea}, !- Handle
  ZONE ONE,                               !- Name
  ,                                       !- Space Type Name
  ,                                       !- Default Construction Set Name
  ,                                       !- Default Schedule Set Name
  0,                                      !- Direction of Relative North {deg}
  0,                                      !- X Origin {m}
  0,                                      !- Y Origin {m}
  0,                                      !- Z Origin {m}
  ,                                       !- Building Story Name
  {9fc9d332-7642-4119-872e-98d81bab0a04}, !- Thermal Zone Name
  ,                                       !- Part of Total Floor Area
  ;                                       !- Design Specification Outdoor Air Object Name

OS:ThermostatSetpoint:DualSetpoint,
  {180a3ef6-110b-41ec-b2ee-5924160d136b}, !- Handle
  {e8af7631-7c60-48d0-97c1-816a78c2e64e}, !- Name
  {98907825-c58b-407b-8ded-a208ef23393d}, !- Heating Setpoint Temperature Schedule Name
  {d9ab3cdb-3948-4da7-8a0a-467a0e50d4d7}; !- Cooling Setpoint Temperature Schedule Name

OS:Schedule:Year,
  {98907825-c58b-407b-8ded-a208ef23393d}, !- Handle
  Heating Setpoints,                      !- Name
  {1729b1d9-ddee-468e-8588-813d5a1a9c66}, !- Schedule Type Limits Name
  12,                                     !- Month 1
  31,                                     !- Day 1
  {8cf3a73c-0ff5-4608-9449-c4994cb5b2c0}; !- Week Schedule Until Date 1

OS:ScheduleTypeLimits,
  {1729b1d9-ddee-468e-8588-813d5a1a9c66}, !- Handle
  Temperature,                            !- Name
  -60,                                    !- Lower Limit Value
  200,                                    !- Upper Limit Value
  Continuous,                             !- Numeric Type
  Temperature;                            !- Unit Type

OS:Schedule:Week,
  {8cf3a73c-0ff5-4608-9449-c4994cb5b2c0}, !- Handle
  Zone Heating Setpoint All Weeks,        !- Name
  ,                                       !- Schedule Rendering Name
  {1b7ebf16-aa01-44dc-b225-c89df3b4c699}, !- Sunday Schedule:Day Name
  {1b7ebf16-aa01-44dc-b225-c89df3b4c699}, !- Monday Schedule:Day Name
  {1b7ebf16-aa01-44dc-b225-c89df3b4c699}, !- Tuesday Schedule:Day Name
  {1b7ebf16-aa01-44dc-b225-c89df3b4c699}, !- Wednesday Schedule:Day Name
  {1b7ebf16-aa01-44dc-b225-c89df3b4c699}, !- Thursday Schedule:Day Name
  {1b7ebf16-aa01-44dc-b225-c89df3b4c699}, !- Friday Schedule:Day Name
  {1b7ebf16-aa01-44dc-b225-c89df3b4c699}, !- Saturday Schedule:Day Name
  {1b7ebf16-aa01-44dc-b225-c89df3b4c699}, !- Holiday Schedule:Day Name
  {1b7ebf16-aa01-44dc-b225-c89df3b4c699}, !- SummerDesignDay Schedule:Day Name
  {1b7ebf16-aa01-44dc-b225-c89df3b4c699}, !- WinterDesignDay Schedule:Day Name
  {1b7ebf16-aa01-44dc-b225-c89df3b4c699}, !- CustomDay1 Schedule:Day Name
  {1b7ebf16-aa01-44dc-b225-c89df3b4c699}; !- CustomDay2 Schedule:Day Name

OS:Schedule:Day,
  {1b7ebf16-aa01-44dc-b225-c89df3b4c699}, !- Handle
  Zone Heating Setpoint All Days,         !- Name
  {1729b1d9-ddee-468e-8588-813d5a1a9c66}, !- Schedule Type Limits Name
  ,                                       !- Interpolate to Timestep
  1,                                      !- Hour 1
  0,                                      !- Minute 1
  20,                                     !- Value Until Time 1
  2,                                      !- Hour 2
  0,                                      !- Minute 2
  20,                                     !- Value Until Time 2
  3,                                      !- Hour 3
  0,                                      !- Minute 3
  20,                                     !- Value Until Time 3
  4,                                      !- Hour 4
  0,                                      !- Minute 4
  20,                                     !- Value Until Time 4
  5,                                      !- Hour 5
  0,                                      !- Minute 5
  20,                                     !- Value Until Time 5
  6,                                      !- Hour 6
  0,                                      !- Minute 6
  20,                                     !- Value Until Time 6
  7,                                      !- Hour 7
  0,                                      !- Minute 7
  20,                                     !- Value Until Time 7
  8,                                      !- Hour 8
  0,                                      !- Minute 8
  20,                                     !- Value Until Time 8
  9,                                      !- Hour 9
  0,                                      !- Minute 9
  20,                                     !- Value Until Time 9
  10,                                     !- Hour 10
  0,                                      !- Minute 10
  20,                                     !- Value Until Time 10
  11,                                     !- Hour 11
  0,                                      !- Minute 11
  20,                                     !- Value Until Time 11
  12,                                     !- Hour 12
  0,                                      !- Minute 12
  20,                                     !- Value Until Time 12
  13,                                     !- Hour 13
  0,                                      !- Minute 13
  20,                                     !- Value Until Time 13
  14,                                     !- Hour 14
  0,                                      !- Minute 14
  20,                                     !- Value Until Time 14
  15,                                     !- Hour 15
  0,                                      !- Minute 15
  20,                                     !- Value Until Time 15
  16,                                     !- Hour 16
  0,                                      !- Minute 16
  20,                                     !- Value Until Time 16
  17,                                     !- Hour 17
  0,                                      !- Minute 17
  20,                                     !- Value Until Time 17
  18,                                     !- Hour 18
  0,                                      !- Minute 18
  20,                                     !- Value Until Time 18
  19,                                     !- Hour 19
  0,                                      !- Minute 19
  20,                                     !- Value Until Time 19
  20,                                     !- Hour 20
  0,                                      !- Minute 20
  20,                                     !- Value Until Time 20
  21,                                     !- Hour 21
  0,                                      !- Minute 21
  20,                                     !- Value Until Time 21
  22,                                     !- Hour 22
  0,                                      !- Minute 22
  20,                                     !- Value Until Time 22
  23,                                     !- Hour 23
  0,                                      !- Minute 23
  20,                                     !- Value Until Time 23
  24,                                     !- Hour 24
  0,                                      !- Minute 24
  20;                                     !- Value Until Time 24

OS:YearDescription,
  {945f8ad2-c415-4c23-8929-9ac8c2e9e9d5}; !- Handle

OS:Schedule:Year,
  {d9ab3cdb-3948-4da7-8a0a-467a0e50d4d7}, !- Handle
  Cooling Setpoints,                      !- Name
  {1729b1d9-ddee-468e-8588-813d5a1a9c66}, !- Schedule Type Limits Name
  12,                                     !- Month 1
  31,                                     !- Day 1
  {f0c602a9-cc15-4a11-bc5b-9152510abe9c}; !- Week Schedule Until Date 1

OS:Schedule:Week,
  {f0c602a9-cc15-4a11-bc5b-9152510abe9c}, !- Handle
  Zone Cooling Setpoint All Weeks,        !- Name
  ,                                       !- Schedule Rendering Name
  {b77653bc-00b4-42aa-9716-42e9767777e7}, !- Sunday Schedule:Day Name
  {b77653bc-00b4-42aa-9716-42e9767777e7}, !- Monday Schedule:Day Name
  {b77653bc-00b4-42aa-9716-42e9767777e7}, !- Tuesday Schedule:Day Name
  {b77653bc-00b4-42aa-9716-42e9767777e7}, !- Wednesday Schedule:Day Name
  {b77653bc-00b4-42aa-9716-42e9767777e7}, !- Thursday Schedule:Day Name
  {b77653bc-00b4-42aa-9716-42e9767777e7}, !- Friday Schedule:Day Name
  {b77653bc-00b4-42aa-9716-42e9767777e7}, !- Saturday Schedule:Day Name
  {b77653bc-00b4-42aa-9716-42e9767777e7}, !- Holiday Schedule:Day Name
  {b77653bc-00b4-42aa-9716-42e9767777e7}, !- SummerDesignDay Schedule:Day Name
  {b77653bc-00b4-42aa-9716-42e9767777e7}, !- WinterDesignDay Schedule:Day Name
  {b77653bc-00b4-42aa-9716-42e9767777e7}, !- CustomDay1 Schedule:Day Name
  {b77653bc-00b4-42aa-9716-42e9767777e7}; !- CustomDay2 Schedule:Day Name

OS:Schedule:Day,
  {b77653bc-00b4-42aa-9716-42e9767777e7}, !- Handle
  Zone Cooling Setpoint All Days,         !- Name
  {1729b1d9-ddee-468e-8588-813d5a1a9c66}, !- Schedule Type Limits Name
  ,                                       !- Interpolate to Timestep
  1,                                      !- Hour 1
  0,                                      !- Minute 1
  27,                                     !- Value Until Time 1
  2,                                      !- Hour 2
  0,                                      !- Minute 2
  27,                                     !- Value Until Time 2
  3,                                      !- Hour 3
  0,                                      !- Minute 3
  27,                                     !- Value Until Time 3
  4,                                      !- Hour 4
  0,                                      !- Minute 4
  27,                                     !- Value Until Time 4
  5,                                      !- Hour 5
  0,                                      !- Minute 5
  27,                                     !- Value Until Time 5
  6,                                      !- Hour 6
  0,                                      !- Minute 6
  27,                                     !- Value Until Time 6
  7,                                      !- Hour 7
  0,                                      !- Minute 7
  27,                                     !- Value Until Time 7
  8,                                      !- Hour 8
  0,                                      !- Minute 8
  27,                                     !- Value Until Time 8
  9,                                      !- Hour 9
  0,                                      !- Minute 9
  27,                                     !- Value Until Time 9
  10,                                     !- Hour 10
  0,                                      !- Minute 10
  27,                                     !- Value Until Time 10
  11,                                     !- Hour 11
  0,                                      !- Minute 11
  27,                                     !- Value Until Time 11
  12,                                     !- Hour 12
  0,                                      !- Minute 12
  27,                                     !- Value Until Time 12
  13,                                     !- Hour 13
  0,                                      !- Minute 13
  27,                                     !- Value Until Time 13
  14,                                     !- Hour 14
  0,                                      !- Minute 14
  27,                                     !- Value Until Time 14
  15,                                     !- Hour 15
  0,                                      !- Minute 15
  27,                                     !- Value Until Time 15
  16,                                     !- Hour 16
  0,                                      !- Minute 16
  27,                                     !- Value Until Time 16
  17,                                     !- Hour 17
  0,                                      !- Minute 17
  27,                                     !- Value Until Time 17
  18,                                     !- Hour 18
  0,                                      !- Minute 18
  27,                                     !- Value Until Time 18
  19,                                     !- Hour 19
  0,                                      !- Minute 19
  27,                                     !- Value Until Time 19
  20,                                     !- Hour 20
  0,                                      !- Minute 20
  27,                                     !- Value Until Time 20
  21,                                     !- Hour 21
  0,                                      !- Minute 21
  27,                                     !- Value Until Time 21
  22,                                     !- Hour 22
  0,                                      !- Minute 22
  27,                                     !- Value Until Time 22
  23,                                     !- Hour 23
  0,                                      !- Minute 23
  27,                                     !- Value Until Time 23
  24,                                     !- Hour 24
  0,                                      !- Minute 24
  27;                                     !- Value Until Time 24

OS:ShadingSurfaceGroup,
  {f657ac13-964f-4e86-92f4-2af5efa3f945}, !- Handle
  {4308c715-6c77-4f3d-851e-e84ab639063c}, !- Name
  Space,                                  !- Shading Surface Type
  {747cf860-614d-4aff-9e97-5e313ad69fea}; !- Space Name

OS:Schedule:Year,
  {2a4b980c-425b-48eb-b27d-72ac4748079b}, !- Handle
  Sch 2,                                  !- Name
  {18464903-4c16-4919-8a45-0fe578d72ee0}, !- Schedule Type Limits Name
  12,                                     !- Month 1
  31,                                     !- Day 1
  {020ea48e-b3b1-4915-9d6c-3e9644cba158}; !- Week Schedule Until Date 1

OS:ScheduleTypeLimits,
  {18464903-4c16-4919-8a45-0fe578d72ee0}, !- Handle
  Fraction,                               !- Name
  0,                                      !- Lower Limit Value
  1,                                      !- Upper Limit Value
  Continuous;                             !- Numeric Type

OS:Schedule:Week,
  {020ea48e-b3b1-4915-9d6c-3e9644cba158}, !- Handle
  Week Sch 2,                             !- Name
  ,                                       !- Schedule Rendering Name
  {da1a4cf4-74c1-4d0a-9043-16a94cbfd347}, !- Sunday Schedule:Day Name
  {da1a4cf4-74c1-4d0a-9043-16a94cbfd347}, !- Monday Schedule:Day Name
  {da1a4cf4-74c1-4d0a-9043-16a94cbfd347}, !- Tuesday Schedule:Day Name
  {da1a4cf4-74c1-4d0a-9043-16a94cbfd347}, !- Wednesday Schedule:Day Name
  {da1a4cf4-74c1-4d0a-9043-16a94cbfd347}, !- Thursday Schedule:Day Name
  {da1a4cf4-74c1-4d0a-9043-16a94cbfd347}, !- Friday Schedule:Day Name
  {da1a4cf4-74c1-4d0a-9043-16a94cbfd347}, !- Saturday Schedule:Day Name
  {da1a4cf4-74c1-4d0a-9043-16a94cbfd347}, !- Holiday Schedule:Day Name
  {da1a4cf4-74c1-4d0a-9043-16a94cbfd347}, !- SummerDesignDay Schedule:Day Name
  {da1a4cf4-74c1-4d0a-9043-16a94cbfd347}, !- WinterDesignDay Schedule:Day Name
  {da1a4cf4-74c1-4d0a-9043-16a94cbfd347}, !- CustomDay1 Schedule:Day Name
  {da1a4cf4-74c1-4d0a-9043-16a94cbfd347}; !- CustomDay2 Schedule:Day Name

OS:Schedule:Day,
  {da1a4cf4-74c1-4d0a-9043-16a94cbfd347}, !- Handle
  Day Sch 2,                              !- Name
  {18464903-4c16-4919-8a45-0fe578d72ee0}, !- Schedule Type Limits Name
  ,                                       !- Interpolate to Timestep
  1,                                      !- Hour 1
  0,                                      !- Minute 1
  0,                                      !- Value Until Time 1
  2,                                      !- Hour 2
  0,                                      !- Minute 2
  0,                                      !- Value Until Time 2
  3,                                      !- Hour 3
  0,                                      !- Minute 3
  0,                                      !- Value Until Time 3
  4,                                      !- Hour 4
  0,                                      !- Minute 4
  0,                                      !- Value Until Time 4
  5,                                      !- Hour 5
  0,                                      !- Minute 5
  0,                                      !- Value Until Time 5
  6,                                      !- Hour 6
  0,                                      !- Minute 6
  0,                                      !- Value Until Time 6
  7,                                      !- Hour 7
  0,                                      !- Minute 7
  0,                                      !- Value Until Time 7
  8,                                      !- Hour 8
  0,                                      !- Minute 8
  0,                                      !- Value Until Time 8
  9,                                      !- Hour 9
  0,                                      !- Minute 9
  0,                                      !- Value Until Time 9
  10,                                     !- Hour 10
  0,                                      !- Minute 10
  0,                                      !- Value Until Time 10
  11,                                     !- Hour 11
  0,                                      !- Minute 11
  0,                                      !- Value Until Time 11
  12,                                     !- Hour 12
  0,                                      !- Minute 12
  0,                                      !- Value Until Time 12
  13,                                     !- Hour 13
  0,                                      !- Minute 13
  0,                                      !- Value Until Time 13
  14,                                     !- Hour 14
  0,                                      !- Minute 14
  0,                                      !- Value Until Time 14
  15,                                     !- Hour 15
  0,                                      !- Minute 15
  0,                                      !- Value Until Time 15
  16,                                     !- Hour 16
  0,                                      !- Minute 16
  0,                                      !- Value Until Time 16
  17,                                     !- Hour 17
  0,                                      !- Minute 17
  0,                                      !- Value Until Time 17
  18,                                     !- Hour 18
  0,                                      !- Minute 18
  0,                                      !- Value Until Time 18
  19,                                     !- Hour 19
  0,                                      !- Minute 19
  0,                                      !- Value Until Time 19
  20,                                     !- Hour 20
  0,                                      !- Minute 20
  0,                                      !- Value Until Time 20
  21,                                     !- Hour 21
  0,                                      !- Minute 21
  0,                                      !- Value Until Time 21
  22,                                     !- Hour 22
  0,                                      !- Minute 22
  0,                                      !- Value Until Time 22
  23,                                     !- Hour 23
  0,                                      !- Minute 23
  0,                                      !- Value Until Time 23
  24,                                     !- Hour 24
  0,                                      !- Minute 24
  0;                                      !- Value Until Time 24

OS:ShadingSurface,
  {7577689e-8f33-4529-94c9-60382d87cbaf}, !- Handle
  EAST WINDOW OVERHANG,                   !- Name
  ,                                       !- Construction Name
  {f657ac13-964f-4e86-92f4-2af5efa3f945}, !- Shading Surface Group Name
  {2a4b980c-425b-48eb-b27d-72ac4748079b}, !- Transmittance Schedule Name
  ,                                       !- Number of Vertices
  9, 4.5, 2.7,                            !- X,Y,Z Vertex 1 {m}
  9, 1.5, 2.7,                            !- X,Y,Z Vertex 2 {m}
  8, 1.5, 2.7,                            !- X,Y,Z Vertex 3 {m}
  8, 4.5, 2.7;                            !- X,Y,Z Vertex 4 {m}

OS:Schedule:Day,
  {3c88dc65-56e6-4ced-8b8b-b5991222bdc4}, !- Handle
  Day Sch 1,                              !- Name
  {18464903-4c16-4919-8a45-0fe578d72ee0}, !- Schedule Type Limits Name
  ,                                       !- Interpolate to Timestep
  1,                                      !- Hour 1
  0,                                      !- Minute 1
  1,                                      !- Value Until Time 1
  2,                                      !- Hour 2
  0,                                      !- Minute 2
  1,                                      !- Value Until Time 2
  3,                                      !- Hour 3
  0,                                      !- Minute 3
  1,                                      !- Value Until Time 3
  4,                                      !- Hour 4
  0,                                      !- Minute 4
  1,                                      !- Value Until Time 4
  5,                                      !- Hour 5
  0,                                      !- Minute 5
  1,                                      !- Value Until Time 5
  6,                                      !- Hour 6
  0,                                      !- Minute 6
  1,                                      !- Value Until Time 6
  7,                                      !- Hour 7
  0,                                      !- Minute 7
  1,                                      !- Value Until Time 7
  8,                                      !- Hour 8
  0,                                      !- Minute 8
  1,                                      !- Value Until Time 8
  9,                                      !- Hour 9
  0,                                      !- Minute 9
  1,                                      !- Value Until Time 9
  10,                                     !- Hour 10
  0,                                      !- Minute 10
  1,                                      !- Value Until Time 10
  11,                                     !- Hour 11
  0,                                      !- Minute 11
  1,                                      !- Value Until Time 11
  12,                                     !- Hour 12
  0,                                      !- Minute 12
  1,                                      !- Value Until Time 12
  13,                                     !- Hour 13
  0,                                      !- Minute 13