
OS:Version,
  {a06f4c9a-2d9a-4b82-a000-48e852bd0e02}, !- Handle
  1.10.6;                                 !- Version Identifier

OS:Site,
  {c84c604e-ed3b-4ac5-8a8f-c19bf5142863}, !- Handle
  GOLDEN COLORADO,                        !- Name
  39.8,                                   !- Latitude {deg}
  -104.9,                                 !- Longitude {deg}
  -7,                                     !- Time Zone {hr}
  1609,                                   !- Elevation {m}
  Country;                                !- Terrain

OS:Output:Variable,
  {f588a890-e08b-45f6-9166-e923d087759a}, !- Handle
  {f3bca70a-d326-49ef-97fd-c01b35b58fa7}, !- Name
  *,                                      !- Key Value
  Surface Outside Face Incident Solar Radiation Rate per Area, !- Variable Name
  Hourly;                                 !- Reporting Frequency

OS:Output:Variable,
  {7cc79e4c-9b44-4e59-9b39-bd0f645a3962}, !- Handle
  {4c219e47-064a-4426-8d04-4f465ff70a5c}, !- Name
  *,                                      !- Key Value
  Surface Outside Face Sunlit Fraction,   !- Variable Name
  Hourly;                                 !- Reporting Frequency

OS:Schedule:Year,
  {f2c1620c-625e-41e9-8953-e7006509c704}, !- Handle
  Heating Setpoints,                      !- Name
  {5ecd72cb-b534-42b0-9433-b57cb3d5c74f}, !- Schedule Type Limits Name
  12,                                     !- Month 1
  31,                                     !- Day 1
  {b0b2a6d5-260a-4714-8679-f17cc9e7cc3c}; !- Week Schedule Until Date 1

OS:ScheduleTypeLimits,
  {5ecd72cb-b534-42b0-9433-b57cb3d5c74f}, !- Handle
  Temperature,                            !- Name
  -60,                                    !- Lower Limit Value
  200,                                    !- Upper Limit Value
  Continuous,                             !- Numeric Type
  Temperature;                            !- Unit Type

OS:Schedule:Week,
  {b0b2a6d5-260a-4714-8679-f17cc9e7cc3c}, !- Handle
  Zone Heating Setpoint All Weeks,        !- Name
  ,                                       !- Schedule Rendering Name
  {af8f5148-e501-4512-8827-750e5b93cdc6}, !- Sunday Schedule:Day Name
  {af8f5148-e501-4512-8827-750e5b93cdc6}, !- Monday Schedule:Day Name
  {af8f5148-e501-4512-8827-750e5b93cdc6}, !- Tuesday Schedule:Day Name
  {af8f5148-e501-4512-8827-750e5b93cdc6}, !- Wednesday Schedule:Day Name
  {af8f5148-e501-4512-8827-750e5b93cdc6}, !- Thursday Schedule:Day Name
  {af8f5148-e501-4512-8827-750e5b93cdc6}, !- Friday Schedule:Day Name
  {af8f5148-e501-4512-8827-750e5b93cdc6}, !- Saturday Schedule:Day Name
  {af8f5148-e501-4512-8827-750e5b93cdc6}, !- Holiday Schedule:Day Name
  {af8f5148-e501-4512-8827-750e5b93cdc6}, !- SummerDesignDay Schedule:Day Name
  {af8f5148-e501-4512-8827-750e5b93cdc6}, !- WinterDesignDay Schedule:Day Name
  {af8f5148-e501-4512-8827-750e5b93cdc6}, !- CustomDay1 Schedule:Day Name
  {af8f5148-e501-4512-8827-750e5b93cdc6}; !- CustomDay2 Schedule:Day Name

OS:Schedule:Day,
  {af8f5148-e501-4512-8827-750e5b93cdc6}, !- Handle
  Zone Heating Setpoint All Days,         !- Name
  {5ecd72cb-b534-42b0-9433-b57cb3d5c74f}, !- Schedule Type Limits Name
  ,                                       !- Interpolate to Timestep
  1,                                      !- Hour 1
  0,                                      !- Minute 1
  20,                                     !- Value Until Time 1
  2,                                      !- Hour 2
  0,                                      !- Minute 2
  20,                                     !- Value Until Time 2
  3,                                      !- Hour 3
  0,                                      !- Minute 3
  20,                                     !- Value Until Time 3
  4,                                      !- Hour 4
  0,                                      !- Minute 4
  20,                                     !- Value Until Time 4
  5,                                      !- Hour 5
  0,                                      !- Minute 5
  20,                                     !- Value Until Time 5
  6,                                      !- Hour 6
  0,                                      !- Minute 6
  20,                                     !- Value Until Time 6
  7,                                      !- Hour 7
  0,                                      !- Minute 7
  20,                                     !- Value Until Time 7
  8,                                      !- Hour 8
  0,                                      !- Minute 8
  20,                                     !- Value Until Time 8
  9,                                      !- Hour 9
  0,                                      !- Minute 9
  20,                                     !- Value Until Time 9
  10,                                     !- Hour 10
  0,                                      !- Minute 10
  20,                                     !- Value Until Time 10
  11,                                     !- Hour 11
  0,                                      !- Minute 11
  20,                                     !- Value Until Time 11
  12,                                     !- Hour 12
  0,                                      !- Minute 12
  20,                                     !- Value Until Time 12
  13,                                     !- Hour 13
  0,                                      !- Minute 13
  20,                                     !- Value Until Time 13
  14,                                     !- Hour 14
  0,                                      !- Minute 14
  20,                                     !- Value Until Time 14
  15,                                     !- Hour 15
  0,                                      !- Minute 15
  20,                                     !- Value Until Time 15
  16,                                     !- Hour 16
  0,                                      !- Minute 16
  20,                                     !- Value Until Time 16
  17,                                     !- Hour 17
  0,                                      !- Minute 17
  20,                                     !- Value Until Time 17
  18,                                     !- Hour 18
  0,                                      !- Minute 18
  20,                                     !- Value Until Time 18
  19,                                     !- Hour 19
  0,                                      !- Minute 19
  20,                                     !- Value Until Time 19
  20,                                     !- Hour 20
  0,                                      !- Minute 20
  20,                                     !- Value Until Time 20
  21,                                     !- Hour 21
  0,                                      !- Minute 21
  20,                                     !- Value Until Time 21
  22,                                     !- Hour 22
  0,                                      !- Minute 22
  20,                                     !- Value Until Time 22
  23,                                     !- Hour 23
  0,                                      !- Minute 23
  20,                                     !- Value Until Time 23
  24,                                     !- Hour 24
  0,                                      !- Minute 24
  20;                                     !- Value Until Time 24

OS:YearDescription,
  {f8c8f17f-4c52-43e8-b248-02a9e6997eb1}; !- Handle

OS:Surface,
  {e9cacdee-7495-449b-a308-cdd433363d2d}, !- Handle
  ZONE SURFACE NORTH,                     !- Name
  Wall,                                   !- Surface Type
  ,                                       !- Construction Name
  {551d6535-1792-4260-aced-ddfea54bb5a8}, !- Space Name
  Outdoors,                               !- Outside Boundary Condition
  ,                                       !- Outside Boundary Condition Object
  SunExposed,                             !- Sun Exposure
  WindExposed,                            !- Wind Exposure
  0.5,                                    !- View Factor to Ground
  ,                                       !- Number of Vertices
  8, 6, 2.7,                              !- X,Y,Z Vertex 1 {m}
  8, 6, 0,                                !- X,Y,Z Vertex 2 {m}
  0, 6, 0,                                !- X,Y,Z Vertex 3 {m}
  0, 6, 2.7;                              !- X,Y,Z Vertex 4 {m}

OS:ThermalZone,
  {7ff413c5-f493-42bb-aa91-8f8d39c72083}, !- Handle
  ZONE ONE Thermal Zone,                  !- Name
  1,                                      !- Multiplier
  2.7,                                    !- Ceiling Height {m}
  129.6,                                  !- Volume {m3}
  ,                                       !- Floor Area {m2}
  ,                                       !- Zone Inside Convection Algorithm
  ,                                       !- Zone Outside Convection Algorithm
  ,                                       !- Zone Conditioning Equipment List Name
  {4070b77a-56db-4f9a-8ff1-309eb58ee81d}, !- Zone Air Inlet Port List
  {9efadadb-ccb6-4d47-89d7-0ffbf9277796}, !- Zone Air Exhaust Port List
  {089611cc-1540-44d9-950a-d69206dd4bce}, !- Zone Air Node Name
  ,                                       !- Zone Return Air Node Name
  ,                                       !- Primary Daylighting Control Name
  ,                                       !- Fraction of Zone Controlled by Primary Daylighting Control
  ,                                       !- Secondary Daylighting Control Name
  ,                                       !- Fraction of Zone Controlled by Secondary Daylighting Control
  ,                                       !- Illuminance Map Name
  {c64e1e2d-279a-4d84-b4d8-7eec4f57ae40}, !- Group Rendering Name
  {adcd1199-d4c9-42a5-9567-41d32b15915c}, !- Thermostat Name
  No;                                     !- Use Ideal Air Loads

OS:Node,
  {caef1fe5-4648-4335-b8cf-1d015302bc06}, !- Handle
  {c49244c2-5f6f-4ba2-b293-c71555a45bd7}, !- Name
  {089611cc-1540-44d9-950a-d69206dd4bce}, !- Inlet Port
  ;                                       !- Outlet Port

OS:Connection,
  {089611cc-1540-44d9-950a-d69206dd4bce}, !- Handle
  {90a32879-839f-4f2a-a70b-9bc170365040}, !- Name
  {7ff413c5-f493-42bb-aa91-8f8d39c72083}, !- Source Object
  11,                                     !- Outlet Port
  {caef1fe5-4648-4335-b8cf-1d015302bc06}, !- Target Object
  2;                                      !- Inlet Port

OS:PortList,
  {4070b77a-56db-4f9a-8ff1-309eb58ee81d}, !- Handle
  {ca22990c-5ff1-4ce0-9b74-e4e1b8ba6f9d}, !- Name
  {7ff413c5-f493-42bb-aa91-8f8d39c72083}; !- HVAC Component

OS:PortList,
  {9efadadb-ccb6-4d47-89d7-0ffbf9277796}, !- Handle
  {4c19bc23-acfa-4853-b589-043bfcf6c806}, !- Name
  {7ff413c5-f493-42bb-aa91-8f8d39c72083}; !- HVAC Component

OS:Sizing:Zone,
  {3c82151d-3c73-45ef-9cc2-400491df6ac8}, !- Handle
  {7ff413c5-f493-42bb-aa91-8f8d39c72083}, !- Zone or ZoneList Name
  SupplyAirTemperature,                   !- Zone Cooling Design Supply Air Temperature Input Method
  14,                                     !- Zone Cooling Design Supply Air Temperature {C}
  11.11,                                  !- Zone Cooling Design Supply Air Temperature Difference {deltaC}
  SupplyAirTemperature,                   !- Zone Heating Design Supply Air Temperature Input Method
  40,                                     !- Zone Heating Design Supply Air Temperature {C}
  11.11,                                  !- Zone Heating Design Supply Air Temperature Difference {deltaC}
  0.0085,                                 !- Zone Cooling Design Supply Air Humidity Ratio {kg-H2O/kg-air}
  0.008,                                  !- Zone Heating Design Supply Air Humidity Ratio {kg-H2O/kg-air}
  ,                                       !- Zone Heating Sizing Factor
  ,                                       !- Zone Cooling Sizing Factor
  DesignDay,                              !- Cooling Design Air Flow Method
  ,                                       !- Cooling Design Air Flow Rate {m3/s}
  ,                                       !- Cooling Minimum Air Flow per Zone Floor Area {m3/s-m2}
  ,                                       !- Cooling Minimum Air Flow {m3/s}
  ,                                       !- Cooling Minimum Air Flow Fraction
  DesignDay,                              !- Heating Design Air Flow Method
  ,                                       !- Heating Design Air Flow Rate {m3/s}
  ,                                       !- Heating Maximum Air Flow per Zone Floor Area {m3/s-m2}
  ,                                       !- Heating Maximum Air Flow {m3/s}
  ,                                       !- Heating Maximum Air Flow Fraction
  ,                                       !- Design Zone Air Distribution Effectiveness in Cooling Mode
  ,                                       !- Design Zone Air Distribution Effectiveness in Heating Mode
  No,                                     !- Account for Dedicated Outdoor Air System
  NeutralSupplyAir,                       !- Dedicated Outdoor Air System Control Strategy
  autosize,                               !- Dedicated Outdoor Air Low Setpoint Temperature for Design {C}
  autosize;                               !- Dedicated Outdoor Air High Setpoint Temperature for Design {C}

OS:ZoneHVAC:EquipmentList,
  {37670d76-920d-408b-bb32-c295c7d2f72a}, !- Handle
  {a32f8aab-955f-4107-a4ee-8c6d81b21ff0}, !- Name
  {7ff413c5-f493-42bb-aa91-8f8d39c72083}; !- Thermal Zone

OS:Space,
  {551d6535-1792-4260-aced-ddfea54bb5a8}, !- Handle
  ZONE ONE,                               !- Name
  ,                                       !- Space Type Name
  ,                                       !- Default Construction Set Name
  ,                                       !- Default Schedule Set Name
  0,                                      !- Direction of Relative North {deg}
  0,                                      !- X Origin {m}
  0,                                      !- Y Origin {m}
  0,                                      !- Z Origin {m}
  ,                                       !- Building Story Name
  {7ff413c5-f493-42bb-aa91-8f8d39c72083}, !- Thermal Zone Name
  ,                                       !- Part of Total Floor Area
  ;                                       !- Design Specification Outdoor Air Object Name

OS:ThermostatSetpoint:DualSetpoint,
  {adcd1199-d4c9-42a5-9567-41d32b15915c}, !- Handle
  {737e7ee1-fb6a-448a-9660-8fe96d0d5a33}, !- Name
  {f2c1620c-625e-41e9-8953-e7006509c704}, !- Heating Setpoint Temperature Schedule Name
  {5b07a94e-94ac-4067-8bb2-bd1de11c6fa4}; !- Cooling Setpoint Temperature Schedule Name

OS:Schedule:Year,
  {5b07a94e-94ac-4067-8bb2-bd1de11c6fa4}, !- Handle
  Cooling Setpoints,                      !- Name
  {5ecd72cb-b534-42b0-9433-b57cb3d5c74f}, !- Schedule Type Limits Name
  12,                                     !- Month 1
  31,                                     !- Day 1
  {aced136b-627b-4a75-a99d-de0550a68824}; !- Week Schedule Until Date 1

OS:Schedule:Week,
  {aced136b-627b-4a75-a99d-de0550a68824}, !- Handle
  Zone Cooling Setpoint All Weeks,        !- Name
  ,                                       !- Schedule Rendering Name
  {88a3d76e-347c-4798-a6bc-2314e3162d00}, !- Sunday Schedule:Day Name
  {88a3d76e-347c-4798-a6bc-2314e3162d00}, !- Monday Schedule:Day Name
  {88a3d76e-347c-4798-a6bc-2314e3162d00}, !- Tuesday Schedule:Day Name
  {88a3d76e-347c-4798-a6bc-2314e3162d00}, !- Wednesday Schedule:Day Name
  {88a3d76e-347c-4798-a6bc-2314e3162d00}, !- Thursday Schedule:Day Name
  {88a3d76e-347c-4798-a6bc-2314e3162d00}, !- Friday Schedule:Day Name
  {88a3d76e-347c-4798-a6bc-2314e3162d00}, !- Saturday Schedule:Day Name
  {88a3d76e-347c-4798-a6bc-2314e3162d00}, !- Holiday Schedule:Day Name
  {88a3d76e-347c-4798-a6bc-2314e3162d00}, !- SummerDesignDay Schedule:Day Name
  {88a3d76e-347c-4798-a6bc-2314e3162d00}, !- WinterDesignDay Schedule:Day Name
  {88a3d76e-347c-4798-a6bc-2314e3162d00}, !- CustomDay1 Schedule:Day Name
  {88a3d76e-347c-4798-a6bc-2314e3162d00}; !- CustomDay2 Schedule:Day Name

OS:Schedule:Day,
  {88a3d76e-347c-4798-a6bc-2314e3162d00}, !- Handle
  Zone Cooling Setpoint All Days,         !- Name
  {5ecd72cb-b534-42b0-9433-b57cb3d5c74f}, !- Schedule Type Limits Name
  ,                                       !- Interpolate to Timestep
  1,                                      !- Hour 1
  0,                                      !- Minute 1
  27,                                     !- Value Until Time 1
  2,                                      !- Hour 2
  0,                                      !- Minute 2
  27,                                     !- Value Until Time 2
  3,                                      !- Hour 3
  0,                                      !- Minute 3
  27,                                     !- Value Until Time 3
  4,                                      !- Hour 4
  0,                                      !- Minute 4
  27,                                     !- Value Until Time 4
  5,                                      !- Hour 5
  0,                                      !- Minute 5
  27,                                     !- Value Until Time 5
  6,                                      !- Hour 6
  0,                                      !- Minute 6
  27,                                     !- Value Until Time 6
  7,                                      !- Hour 7
  0,                                      !- Minute 7
  27,                                     !- Value Until Time 7
  8,                                      !- Hour 8
  0,                                      !- Minute 8
  27,                                     !- Value Until Time 8
  9,                                      !- Hour 9
  0,                                      !- Minute 9
  27,                                     !- Value Until Time 9
  10,                                     !- Hour 10
  0,                                      !- Minute 10
  27,                                     !- Value Until Time 10
  11,                                     !- Hour 11
  0,                                      !- Minute 11
  27,                                     !- Value Until Time 11
  12,                                     !- Hour 12
  0,                                      !- Minute 12
  27,                                     !- Value Until Time 12
  13,                                     !- Hour 13
  0,                                      !- Minute 13
  27,                                     !- Value Until Time 13
  14,                                     !- Hour 14
  0,                                      !- Minute 14
  27,                                     !- Value Until Time 14
  15,                                     !- Hour 15
  0,                                      !- Minute 15
  27,                                     !- Value Until Time 15
  16,                                     !- Hour 16
  0,                                      !- Minute 16
  27,                                     !- Value Until Time 16
  17,                                     !- Hour 17
  0,                                      !- Minute 17
  27,                                     !- Value Until Time 17
  18,                                     !- Hour 18
  0,                                      !- Minute 18
  27,                                     !- Value Until Time 18
  19,                                     !- Hour 19
  0,                                      !- Minute 19
  27,                                     !- Value Until Time 19
  20,                                     !- Hour 20
  0,                                      !- Minute 20
  27,                                     !- Value Until Time 20
  21,                                     !- Hour 21
  0,                                      !- Minute 21
  27,                                     !- Value Until Time 21
  22,                                     !- Hour 22
  0,                                      !- Minute 22
  27,                                     !- Value Until Time 22
  23,                                     !- Hour 23
  0,                                      !- Minute 23
  27,                                     !- Value Until Time 23
  24,                                     !- Hour 24
  0,                                      !- Minute 24
  27;                                     !- Value Until Time 24

OS:Output:Variable,
  {27e69561-5eb8-4991-9406-c65d2cd16594}, !- Handle
  {0d4600ea-f3a8-4c8d-846f-af0eb6e96228}, !- Name
  *,                                      !- Key Value
  Zone Mean Air Temperature,              !- Variable Name
  Hourly;                                 !- Reporting Frequency

OS:Surface,
  {daacc8f5-c018-4c9f-8a9e-451c717b327a}, !- Handle
  ZONE SURFACE SOUTH,                     !- Name
  Wall,                                   !- Surface Type
  ,                                       !- Construction Name
  {551d6535-1792-4260-aced-ddfea54bb5a8}, !- Space Name
  Outdoors,                               !- Outside Boundary Condition
  ,                                       !- Outside Boundary Condition Object
  SunExposed,                             !- Sun Exposure
  WindExposed,                            !- Wind Exposure
  0.5,                                    !- View Factor to Ground
  ,                                       !- Number of Vertices
  0, 0, 2.7,                              !- X,Y,Z Vertex 1 {m}
  0, 0, 0,                                !- X,Y,Z Vertex 2 {m}
  8, 0, 0,                                !- X,Y,Z Vertex 3 {m}
  8, 0, 2.7;                              !- X,Y,Z Vertex 4 {m}

OS:Output:Variable,
  {08ba7109-aa47-433c-988b-46f35138d224}, !- Handle
  {8f45c1c3-1e64-4820-9f81-b157b428b3e2}, !- Name
  *,                                      !- Key Value
  Surface Window Transmitted Beam Solar Radiation Rate, !- Variable Name
  Hourly;                                 !- Reporting Frequency

OS:ScheduleTypeLimits,
  {3fd9abd2-b7f4-4899-ac56-616c8f194ac2}, !- Handle
  Fraction,                               !- Name
  0,                                      !- Lower Limit Value
  1,                                      !- Upper Limit Value
  Continuous;                             !- Numeric Type

OS:Timestep,
  {e92361c5-498f-483b-af0f-e6ed6f896b2b}, !- Handle
  4;                                      !- Number of Timesteps per Hour

OS:RunPeriod,
  {208316a4-0b9e-420c-936b-043bc09bf1a6}, !- Handle
  Run Period 1,                           !- Name
  1,                                      !- Begin Month
  1,                                      !- Begin Day of Month
  12,                                     !- End Month
  31,                                     !- End Day of Month
  Yes,                                    !- Use Weather File Holidays and Special Days
  Yes,                                    !- Use Weather File Daylight Saving Period
  Yes,                                    !- Apply Weekend Holiday Rule
  Yes,                                    !- Use Weather File Rain Indicators
  Yes,                                    !- Use Weather File Snow Indicators
  ;                                       !- Number of Times Runperiod to be Repeated

OS:Surface,
  {1a9d61af-ef07-4c9a-aea6-488ff7a9967b}, !- Handle
  ZONE SURFACE EAST,                      !- Name
  Wall,                                   !- Surface Type
  ,                                       !- Construction Name
  {551d6535-1792-4260-aced-ddfea54bb5a8}, !- Space Name
  Outdoors,                               !- Outside Boundary Condition
  ,                                       !- Outside Boundary Condition Object
  SunExposed,                             !- Sun Exposure
  WindExposed,                            !- Wind Exposure
  0.5,                                    !- View Factor to Ground
  ,                                       !- Number of Vertices
  8, 0, 2.7,                              !- X,Y,Z Vertex 1 {m}
  8, 0, 0,                                !- X,Y,Z Vertex 2 {m}
  8, 6, 0,                                !- X,Y,Z Vertex 3 {m}
  8, 6, 2.7;                              !- X,Y,Z Vertex 4 {m}

OS:Output:Variable,
  {75c09391-4d63-40aa-bb76-cbdb395e0743}, !- Handle
  {e019308d-3efb-41db-b46b-ed95140c0226}, !- Name
  *,                                      !- Key Value
  Surface Outside Face Sunlit Area,       !- Variable Name
  Hourly;                                 !- Reporting Frequency

OS:Schedule:Week,
  {cf4c1121-2bbf-45ed-a000-9f65be5c6af9}, !- Handle
  Week Sch 1,                             !- Name
  ,                                       !- Schedule Rendering Name
  {c3ad08ab-4403-4a35-a0e0-05d5e1fcb90f}, !- Sunday Schedule:Day Name
  {c3ad08ab-4403-4a35-a0e0-05d5e1fcb90f}, !- Monday Schedule:Day Name
  {c3ad08ab-4403-4a35-a0e0-05d5e1fcb90f}, !- Tuesday Schedule:Day Name
  {c3ad08ab-4403-4a35-a0e0-05d5e1fcb90f}, !- Wednesday Schedule:Day Name
  {c3ad08ab-4403-4a35-a0e0-05d5e1fcb90f}, !- Thursday Schedule:Day Name
  {c3ad08ab-4403-4a35-a0e0-05d5e1fcb90f}, !- Friday Schedule:Day Name
  {c3ad08ab-4403-4a35-a0e0-05d5e1fcb90f}, !- Saturday Schedule:Day Name
  {c3ad08ab-4403-4a35-a0e0-05d5e1fcb90f}, !- Holiday Schedule:Day Name
  {c3ad08ab-4403-4a35-a0e0-05d5e1fcb90f}, !- SummerDesignDay Schedule:Day Name
  {c3ad08ab-4403-4a35-a0e0-05d5e1fcb90f}, !- WinterDesignDay Schedule:Day Name
  {c3ad08ab-4403-4a35-a0e0-05d5e1fcb90f}, !- CustomDay1 Schedule:Day Name
  {c3ad08ab-4403-4a35-a0e0-05d5e1fcb90f}; !- CustomDay2 Schedule:Day Name

OS:Schedule:Day,
  {c3ad08ab-4403-4a35-a0e0-05d5e1fcb90f}, !- Handle
  Day Sch 1,                              !- Name
  {3fd9abd2-b7f4-4899-ac56-616c8f194ac2}, !- Schedule Type Limits Name
  ,                                       !- Interpolate to Timestep
  1,                                      !- Hour 1
  0,                                      !- Minute 1
  1,                                      !- Value Until Time 1
  2,                                      !- Hour 2
  0,                                      !- Minute 2
  1,                                      !- Value Until Time 2
  3,                                      !- Hour 3
  0,                                      !- Minute 3
  1,                                      !- Value Until Time 3
  4,                                      !- Hour 4
  0,                                      !- Minute 4
  1,                                      !- Value Until Time 4
  5,                                      !- Hour 5
  0,                                      !- Minute 5
  1,                                      !- Value Until Time 5
  6,                                      !- Hour 6
  0,                                      !- Minute 6
  1,                                      !- Value Until Time 6
  7,                                      !- Hour 7
  0,                                      !- Minute 7
  1,                                      !- Value Until Time 7
  8,                                      !- Hour 8
  0,                                      !- Minute 8
  1,                                      !- Value Until Time 8
  9,                                      !- Hour 9
  0,                                      !- Minute 9
  1,                                      !- Value Until Time 9
  10,                                     !- Hour 10
  0,                                      !- Minute 10
  1,                                      !- Value Until Time 10
  11,                                     !- Hour 11
  0,                                      !- Minute 11
  1,                                      !- Value Until Time 11
  12,                                     !- Hour 12
  0,                                      !- Minute 12
  1,                                      !- Value Until Time 12
  13,                                     !- Hour 13
  0,                                      !- Minute 13
  1,                                      !- Value Until Time 13
  14,                                     !- Hour 14
  0,                                      !- Minute 14
  1,                                      !- Value Until Time 14
  15,                                     !- Hour 15
  0,                                      !- Minute 15
  1,                                      !- Value Until Time 15
  16,                                     !- Hour 16
  0,                                      !- Minute 16
  1,                                      !- Value Until Time 16
  17,                                     !- Hour 17
  0,                                      !- Minute 17
  1,                                      !- Value Until Time 17
  18,                                     !- Hour 18
  0,                                      !- Minute 18
  1,                                      !- Value Until Time 18
  19,                                     !- Hour 19
  0,                                      !- Minute 19
  1,                                      !- Value Until Time 19
  20,                                     !- Hour 20
  0,                                      !- Minute 20
  1,                                      !- Value Until Time 20
  21,                                     !- Hour 21
  0,                                      !- Minute 21
  1,                                      !- Value Until Time 21
  22,                                     !- Hour 22
  0,                                      !- Minute 22
  1,                                      !- Value Until Time 22
  23,                                     !- Hour 23
  0,                                      !- Minute 23
  1,                                      !- Value Until Time 23
  24,                                     !- Hour 24
  0,                                      !- Minute 24