
OS:Version,
  {952d15ce-15ab-48af-99b5-6b9cb2d25b9b}, !- Handle
  1.11.5;                                 !- Version Identifier

OS:Site,
  {392316cf-beaa-4fc5-a2c7-0621452b934c}, !- Handle
  GOLDEN COLORADO,                        !- Name
  39.8,                                   !- Latitude {deg}
  -104.9,                                 !- Longitude {deg}
  -7,                                     !- Time Zone {hr}
  1609,                                   !- Elevation {m}
  Country;                                !- Terrain

OS:ScheduleTypeLimits,
  {06c2a709-2739-4924-9403-dc2afa1f6294}, !- Handle
  Temperature,                            !- Name
  -60,                                    !- Lower Limit Value
  200,                                    !- Upper Limit Value
  Continuous,                             !- Numeric Type
  Temperature;                            !- Unit Type

OS:OtherEquipment:Definition,
  {96db8990-22d5-4058-9ef0-54cc18e6b0bf}, !- Handle
  BACK ZONE OthEq 1 Definition,           !- Name
  EquipmentLevel,                         !- Design Level Calculation Method
  200,                                    !- Design Level {W}
  ,                                       !- Watts per Space Floor Area {W/m2}
  ,                                       !- Watts per Person {W/Person}
  0,                                      !- Fraction Latent
  0.6,                                    !- Fraction Radiant
  0;                                      !- Fraction Lost

OS:OtherEquipment,
  {47bd5e48-a7cc-4354-b658-a6f10fe368d1}, !- Handle
  BACK ZONE OthEq 1,                      !- Name
  {96db8990-22d5-4058-9ef0-54cc18e6b0bf}, !- Other Equipment Definition Name
  {b7e837d1-bbdc-466e-a15f-60c6aa9dcb80}, !- Space or SpaceType Name
  {d147ab77-7678-49b8-9fba-59714a429e81}; !- Schedule Name

OS:ThermalZone,
  {142f92d8-4685-420d-8664-635ef092cb86}, !- Handle
  BACK ZONE Thermal Zone,                 !- Name
  1,                                      !- Multiplier
  2.7,                                    !- Ceiling Height {m}
  129.6,                                  !- Volume {m3}
  ,                                       !- Floor Area {m2}
  ,                                       !- Zone Inside Convection Algorithm
  ,                                       !- Zone Outside Convection Algorithm
  ,                                       !- Zone Conditioning Equipment List Name
  {c59829ec-dd21-4ac8-8749-7fa5be2036d4}, !- Zone Air Inlet Port List
  {8c6a1ade-1257-4d1a-a339-e6e2a1385f48}, !- Zone Air Exhaust Port List
  {28006ad6-016c-4481-8753-60a8384d7c16}, !- Zone Air Node Name
  ,                                       !- Zone Return Air Node Name
  ,                                       !- Primary Daylighting Control Name
  ,                                       !- Fraction of Zone Controlled by Primary Daylighting Control
  ,                                       !- Secondary Daylighting Control Name
  ,                                       !- Fraction of Zone Controlled by Secondary Daylighting Control
  ,                                       !- Illuminance Map Name
  {4c2faccb-836f-4774-ad5a-e08ce152c413}, !- Group Rendering Name
  {28752d4e-0bbb-4cb4-aaf1-78484df181fe}, !- Thermostat Name
  No;                                     !- Use Ideal Air Loads

OS:Node,
  {0fd3bf14-5868-4fe4-b43d-42bb68fd3cef}, !- Handle
  {2f23a768-b826-40b5-a22f-ff11b8832eaa}, !- Name
  {28006ad6-016c-4481-8753-60a8384d7c16}, !- Inlet Port
  ;                                       !- Outlet Port

OS:Connection,
  {28006ad6-016c-4481-8753-60a8384d7c16}, !- Handle
  {6a65df12-44c0-4c88-ac07-f7a10fba4eb4}, !- Name
  {142f92d8-4685-420d-8664-635ef092cb86}, !- Source Object
  11,                                     !- Outlet Port
  {0fd3bf14-5868-4fe4-b43d-42bb68fd3cef}, !- Target Object
  2;                                      !- Inlet Port

OS:PortList,
  {c59829ec-dd21-4ac8-8749-7fa5be2036d4}, !- Handle
  {84ac8785-53b0-4ffc-96bc-89e8c50de6c5}, !- Name
  {142f92d8-4685-420d-8664-635ef092cb86}; !- HVAC Component

OS:PortList,
  {8c6a1ade-1257-4d1a-a339-e6e2a1385f48}, !- Handle
  {c97ee413-904d-4722-b9ca-894e20fa06d5}, !- Name
  {142f92d8-4685-420d-8664-635ef092cb86}; !- HVAC Component

OS:Sizing:Zone,
  {2910148a-3cfd-43f7-9332-98b9fb8f9b35}, !- Handle
  {142f92d8-4685-420d-8664-635ef092cb86}, !- Zone or ZoneList Name
  SupplyAirTemperature,                   !- Zone Cooling Design Supply Air Temperature Input Method
  14,                                     !- Zone Cooling Design Supply Air Temperature {C}
  11.11,                                  !- Zone Cooling Design Supply Air Temperature Difference {deltaC}
  SupplyAirTemperature,                   !- Zone Heating Design Supply Air Temperature Input Method
  40,                                     !- Zone Heating Design Supply Air Temperature {C}
  11.11,                                  !- Zone Heating Design Supply Air Temperature Difference {deltaC}
  0.0085,                                 !- Zone Cooling Design Supply Air Humidity Ratio {kg-H2O/kg-air}
  0.008,                                  !- Zone Heating Design Supply Air Humidity Ratio {kg-H2O/kg-air}
  ,                                       !- Zone Heating Sizing Factor
  ,                                       !- Zone Cooling Sizing Factor
  DesignDay,                              !- Cooling Design Air Flow Method
  ,                                       !- Cooling Design Air Flow Rate {m3/s}
  ,                                       !- Cooling Minimum Air Flow per Zone Floor Area {m3/s-m2}
  ,                                       !- Cooling Minimum Air Flow {m3/s}
  ,                                       !- Cooling Minimum Air Flow Fraction
  DesignDay,                              !- Heating Design Air Flow Method
  ,                                       !- Heating Design Air Flow Rate {m3/s}
  ,                                       !- Heating Maximum Air Flow per Zone Floor Area {m3/s-m2}
  ,                                       !- Heating Maximum Air Flow {m3/s}
  ,                                       !- Heating Maximum Air Flow Fraction
  ,                                       !- Design Zone Air Distribution Effectiveness in Cooling Mode
  ,                                       !- Design Zone Air Distribution Effectiveness in Heating Mode
  No,                                     !- Account for Dedicated Outdoor Air System
  NeutralSupplyAir,                       !- Dedicated Outdoor Air System Control Strategy
  autosize,                               !- Dedicated Outdoor Air Low Setpoint Temperature for Design {C}
  autosize;                               !- Dedicated Outdoor Air High Setpoint Temperature for Design {C}

OS:ZoneHVAC:EquipmentList,
  {39499f54-11c8-4202-877a-b6c63e29e43d}, !- Handle
  {e757d5f2-e729-47ca-965f-130fe5d243d6}, !- Name
  {142f92d8-4685-420d-8664-635ef092cb86}; !- Thermal Zone

OS:Space,
  {b7e837d1-bbdc-466e-a15f-60c6aa9dcb80}, !- Handle
  BACK ZONE,                              !- Name
  ,                                       !- Space Type Name
  ,                                       !- Default Construction Set Name
  ,                                       !- Default Schedule Set Name
  0,                                      !- Direction of Relative North {deg}
  0,                                      !- X Origin {m}
  0,                                      !- Y Origin {m}
  0,                                      !- Z Origin {m}
  ,                                       !- Building Story Name
  {142f92d8-4685-420d-8664-635ef092cb86}; !- Thermal Zone Name

OS:ThermostatSetpoint:DualSetpoint,
  {28752d4e-0bbb-4cb4-aaf1-78484df181fe}, !- Handle
  {9d96869e-d90a-4060-a642-1105464587f9}, !- Name
  {8a064ab4-62cf-4247-ab58-82a387e861ba}, !- Heating Setpoint Temperature Schedule Name
  {bb50f165-dbde-4227-beb7-be8a29b51b1d}; !- Cooling Setpoint Temperature Schedule Name

OS:Schedule:Year,
  {8a064ab4-62cf-4247-ab58-82a387e861ba}, !- Handle
  Heating Setpoints,                      !- Name
  {06c2a709-2739-4924-9403-dc2afa1f6294}, !- Schedule Type Limits Name
  12,                                     !- Month 1
  31,                                     !- Day 1
  {d2d9b08a-6162-4a2f-8c08-9e1d5dbf10fe}; !- Week Schedule Until Date 1

OS:Schedule:Week,
  {d2d9b08a-6162-4a2f-8c08-9e1d5dbf10fe}, !- Handle
  Zone Heating Setpoint All Weeks,        !- Name
  ,                                       !- Schedule Rendering Name
  {a9a91f68-322f-4f59-a454-641283f68e78}, !- Sunday Schedule:Day Name
  {a9a91f68-322f-4f59-a454-641283f68e78}, !- Monday Schedule:Day Name
  {a9a91f68-322f-4f59-a454-641283f68e78}, !- Tuesday Schedule:Day Name
  {a9a91f68-322f-4f59-a454-641283f68e78}, !- Wednesday Schedule:Day Name
  {a9a91f68-322f-4f59-a454-641283f68e78}, !- Thursday Schedule:Day Name
  {a9a91f68-322f-4f59-a454-641283f68e78}, !- Friday Schedule:Day Name
  {a9a91f68-322f-4f59-a454-641283f68e78}, !- Saturday Schedule:Day Name
  {a9a91f68-322f-4f59-a454-641283f68e78}, !- Holiday Schedule:Day Name
  {a9a91f68-322f-4f59-a454-641283f68e78}, !- SummerDesignDay Schedule:Day Name
  {a9a91f68-322f-4f59-a454-641283f68e78}, !- WinterDesignDay Schedule:Day Name
  {a9a91f68-322f-4f59-a454-641283f68e78}, !- CustomDay1 Schedule:Day Name
  {a9a91f68-322f-4f59-a454-641283f68e78}; !- CustomDay2 Schedule:Day Name

OS:Schedule:Day,
  {a9a91f68-322f-4f59-a454-641283f68e78}, !- Handle
  Zone Heating Setpoint All Days,         !- Name
  {06c2a709-2739-4924-9403-dc2afa1f6294}, !- Schedule Type Limits Name
  ,                                       !- Interpolate to Timestep
  1,                                      !- Hour 1
  0,                                      !- Minute 1
  20,                                     !- Value Until Time 1
  2,                                      !- Hour 2
  0,                                      !- Minute 2
  20,                                     !- Value Until Time 2
  3,                                      !- Hour 3
  0,                                      !- Minute 3
  20,                                     !- Value Until Time 3
  4,                                      !- Hour 4
  0,                                      !- Minute 4
  20,                                     !- Value Until Time 4
  5,                                      !- Hour 5
  0,                                      !- Minute 5
  20,                                     !- Value Until Time 5
  6,                                      !- Hour 6
  0,                                      !- Minute 6
  20,                                     !- Value Until Time 6
  7,                                      !- Hour 7
  0,                                      !- Minute 7
  20,                                     !- Value Until Time 7
  8,                                      !- Hour 8
  0,                                      !- Minute 8
  20,                                     !- Value Until Time 8
  9,                                      !- Hour 9
  0,                                      !- Minute 9
  20,                                     !- Value Until Time 9
  10,                                     !- Hour 10
  0,                                      !- Minute 10
  20,                                     !- Value Until Time 10
  11,                                     !- Hour 11
  0,                                      !- Minute 11
  20,                                     !- Value Until Time 11
  12,                                     !- Hour 12
  0,                                      !- Minute 12
  20,                                     !- Value Until Time 12
  13,                                     !- Hour 13
  0,                                      !- Minute 13
  20,                                     !- Value Until Time 13
  14,                                     !- Hour 14
  0,                                      !- Minute 14
  20,                                     !- Value Until Time 14
  15,                                     !- Hour 15
  0,                                      !- Minute 15
  20,                                     !- Value Until Time 15
  16,                                     !- Hour 16
  0,                                      !- Minute 16
  20,                                     !- Value Until Time 16
  17,                                     !- Hour 17
  0,                                      !- Minute 17
  20,                                     !- Value Until Time 17
  18,                                     !- Hour 18
  0,                                      !- Minute 18
  20,                                     !- Value Until Time 18
  19,                                     !- Hour 19
  0,                                      !- Minute 19
  20,                                     !- Value Until Time 19
  20,                                     !- Hour 20
  0,                                      !- Minute 20
  20,                                     !- Value Until Time 20
  21,                                     !- Hour 21
  0,                                      !- Minute 21
  20,                                     !- Value Until Time 21
  22,                                     !- Hour 22
  0,                                      !- Minute 22
  20,                                     !- Value Until Time 22
  23,                                     !- Hour 23
  0,                                      !- Minute 23
  20,                                     !- Value Until Time 23
  24,                                     !- Hour 24
  0,                                      !- Minute 24
  20;                                     !- Value Until Time 24

OS:YearDescription,
  {a46247e9-72c6-4484-b1d9-4d59ac046251}; !- Handle

OS:Schedule:Year,
  {bb50f165-dbde-4227-beb7-be8a29b51b1d}, !- Handle
  Cooling Setpoints,                      !- Name
  {06c2a709-2739-4924-9403-dc2afa1f6294}, !- Schedule Type Limits Name
  12,                                     !- Month 1
  31,                                     !- Day 1
  {a6219e17-0896-4910-81df-125146918bc0}; !- Week Schedule Until Date 1

OS:Schedule:Week,
  {a6219e17-0896-4910-81df-125146918bc0}, !- Handle
  Zone Cooling Setpoint All Weeks,        !- Name
  ,                                       !- Schedule Rendering Name
  {409c997c-7d0f-469b-8cef-16e1600402c8}, !- Sunday Schedule:Day Name
  {409c997c-7d0f-469b-8cef-16e1600402c8}, !- Monday Schedule:Day Name
  {409c997c-7d0f-469b-8cef-16e1600402c8}, !- Tuesday Schedule:Day Name
  {409c997c-7d0f-469b-8cef-16e1600402c8}, !- Wednesday Schedule:Day Name
  {409c997c-7d0f-469b-8cef-16e1600402c8}, !- Thursday Schedule:Day Name
  {409c997c-7d0f-469b-8cef-16e1600402c8}, !- Friday Schedule:Day Name
  {409c997c-7d0f-469b-8cef-16e1600402c8}, !- Saturday Schedule:Day Name
  {409c997c-7d0f-469b-8cef-16e1600402c8}, !- Holiday Schedule:Day Name
  {409c997c-7d0f-469b-8cef-16e1600402c8}, !- SummerDesignDay Schedule:Day Name
  {409c997c-7d0f-469b-8cef-16e1600402c8}, !- WinterDesignDay Schedule:Day Name
  {409c997c-7d0f-469b-8cef-16e1600402c8}, !- CustomDay1 Schedule:Day Name
  {409c997c-7d0f-469b-8cef-16e1600402c8}; !- CustomDay2 Schedule:Day Name

OS:Schedule:Day,
  {409c997c-7d0f-469b-8cef-16e1600402c8}, !- Handle
  Zone Cooling Setpoint All Days,         !- Name
  {06c2a709-2739-4924-9403-dc2afa1f6294}, !- Schedule Type Limits Name
  ,                                       !- Interpolate to Timestep
  1,                                      !- Hour 1
  0,                                      !- Minute 1
  27,                                     !- Value Until Time 1
  2,                                      !- Hour 2
  0,                                      !- Minute 2
  27,                                     !- Value Until Time 2
  3,                                      !- Hour 3
  0,                                      !- Minute 3
  27,                                     !- Value Until Time 3
  4,                                      !- Hour 4
  0,                                      !- Minute 4
  27,                                     !- Value Until Time 4
  5,                                      !- Hour 5
  0,                                      !- Minute 5
  27,                                     !- Value Until Time 5
  6,                                      !- Hour 6
  0,                                      !- Minute 6
  27,                                     !- Value Until Time 6
  7,                                      !- Hour 7
  0,                                      !- Minute 7
  27,                                     !- Value Until Time 7
  8,                                      !- Hour 8
  0,                                      !- Minute 8
  27,                                     !- Value Until Time 8
  9,                                      !- Hour 9
  0,                                      !- Minute 9
  27,                                     !- Value Until Time 9
  10,                                     !- Hour 10
  0,                                      !- Minute 10
  27,                                     !- Value Until Time 10
  11,                                     !- Hour 11
  0,                                      !- Minute 11
  27,                                     !- Value Until Time 11
  12,                                     !- Hour 12
  0,                                      !- Minute 12
  27,                                     !- Value Until Time 12
  13,                                     !- Hour 13
  0,                                      !- Minute 13
  27,                                     !- Value Until Time 13
  14,                                     !- Hour 14
  0,                                      !- Minute 14
  27,                                     !- Value Until Time 14
  15,                                     !- Hour 15
  0,                                      !- Minute 15
  27,                                     !- Value Until Time 15
  16,                                     !- Hour 16
  0,                                      !- Minute 16
  27,                                     !- Value Until Time 16
  17,                                     !- Hour 17
  0,                                      !- Minute 17
  27,                                     !- Value Until Time 17
  18,                                     !- Hour 18
  0,                                      !- Minute 18
  27,                                     !- Value Until Time 18
  19,                                     !- Hour 19
  0,                                      !- Minute 19
  27,                                     !- Value Until Time 19
  20,                                     !- Hour 20
  0,                                      !- Minute 20
  27,                                     !- Value Until Time 20
  21,                                     !- Hour 21
  0,                                      !- Minute 21
  27,                                     !- Value Until Time 21
  22,                                     !- Hour 22
  0,                                      !- Minute 22
  27,                                     !- Value Until Time 22
  23,                                     !- Hour 23
  0,                                      !- Minute 23
  27,                                     !- Value Until Time 23
  24,                                     !- Hour 24
  0,                                      !- Minute 24
  27;                                     !- Value Until Time 24

OS:Schedule:Year,
  {d147ab77-7678-49b8-9fba-59714a429e81}, !- Handle
  Sch 1,                                  !- Name
  {95028f40-782c-452b-bb35-93355dc030b7}, !- Schedule Type Limits Name
  12,                                     !- Month 1
  31,                                     !- Day 1
  {75b9405a-6f5b-479e-8ba6-d5c00337ba84}; !- Week Schedule Until Date 1

OS:ScheduleTypeLimits,
  {95028f40-782c-452b-bb35-93355dc030b7}, !- Handle
  Fraction,                               !- Name
  0,                                      !- Lower Limit Value
  1,                                      !- Upper Limit Value
  Continuous;                             !- Numeric Type

OS:Schedule:Week,
  {75b9405a-6f5b-479e-8ba6-d5c00337ba84}, !- Handle
  Week Sch 1,                             !- Name
  ,                                       !- Schedule Rendering Name
  {04a236eb-cc4a-4617-a735-8cfe2d474d5e}, !- Sunday Schedule:Day Name
  {04a236eb-cc4a-4617-a735-8cfe2d474d5e}, !- Monday Schedule:Day Name
  {04a236eb-cc4a-4617-a735-8cfe2d474d5e}, !- Tuesday Schedule:Day Name
  {04a236eb-cc4a-4617-a735-8cfe2d474d5e}, !- Wednesday Schedule:Day Name
  {04a236eb-cc4a-4617-a735-8cfe2d474d5e}, !- Thursday Schedule:Day Name
  {04a236eb-cc4a-4617-a735-8cfe2d474d5e}, !- Friday Schedule:Day Name
  {04a236eb-cc4a-4617-a735-8cfe2d474d5e}, !- Saturday Schedule:Day Name
  {04a236eb-cc4a-4617-a735-8cfe2d474d5e}, !- Holiday Schedule:Day Name
  {04a236eb-cc4a-4617-a735-8cfe2d474d5e}, !- SummerDesignDay Schedule:Day Name
  {04a236eb-cc4a-4617-a735-8cfe2d474d5e}, !- WinterDesignDay Schedule:Day Name
  {04a236eb-cc4a-4617-a735-8cfe2d474d5e}, !- CustomDay1 Schedule:Day Name
  {04a236eb-cc4a-4617-a735-8cfe2d474d5e}; !- CustomDay2 Schedule:Day Name

OS:Schedule:Day,
  {04a236eb-cc4a-4617-a735-8cfe2d474d5e}, !- Handle
  Day Sch 1,                              !- Name
  {95028f40-782c-452b-bb35-93355dc030b7}, !- Schedule Type Limits Name
  ,                                       !- Interpolate to Timestep
  1,                                      !- Hour 1
  0,                                      !- Minute 1
  1,                                      !- Value Until Time 1
  2,                                      !- Hour 2
  0,                                      !- Minute 2
  1,                                      !- Value Until Time 2
  3,                                      !- Hour 3
  0,                                      !- Minute 3
  1,                                      !- Value Until Time 3
  4,                                      !- Hour 4
  0,                                      !- Minute 4
  1,                                      !- Value Until Time 4
  5,                                      !- Hour 5
  0,                                      !- Minute 5
  1,                                      !- Value Until Time 5
  6,                                      !- Hour 6
  0,                                      !- Minute 6
  1,                                      !- Value Until Time 6
  7,                                      !- Hour 7
  0,                                      !- Minute 7
  1,                                      !- Value Until Time 7
  8,                                      !- Hour 8
  0,                                      !- Minute 8
  1,                                      !- Value Until Time 8
  9,                                      !- Hour 9
  0,                                      !- Minute 9
  1,                                      !- Value Until Time 9
  10,                                     !- Hour 10
  0,                                      !- Minute 10
  1,                                      !- Value Until Time 10
  11,                                     !- Hour 11
  0,                                      !- Minute 11
  1,                                      !- Value Until Time 11
  12,                                     !- Hour 12
  0,                                      !- Minute 12
  1,                                      !- Value Until Time 12
  13,                                     !- Hour 13
  0,                                      !- Minute 13
  1,                                      !- Value Until Time 13
  14,                                     !- Hour 14
  0,                                      !- Minute 14
  1,                                      !- Value Until Time 14
  15,                                     !- Hour 15
  0,                                      !- Minute 15
  1,                                      !- Value Until Time 15
  16,                                     !- Hour 16
  0,                                      !- Minute 16
  1,                                      !- Value Until Time 16
  17,                                     !- Hour 17
  0,                                      !- Minute 17
  1,                                      !- Value Until Time 17
  18,                                     !- Hour 18
  0,                                      !- Minute 18
  1,                                      !- Value Until Time 18
  19,                                     !- Hour 19
  0,                                      !- Minute 19
  1,                                      !- Value Until Time 19
  20,                                     !- Hour 20
  0,                                      !- Minute 20
  1,                                      !- Value Until Time 20
  21,                                     !- Hour 21
  0,                                      !- Minute 21
  1,                                      !- Value Until Time 21
  22,                                     !- Hour 22
  0,                                      !- Minute 22
  1,                                      !- Value Until Time 22
  23,                                     !- Hour 23
  0,                                      !- Minute 23
  1,                                      !- Value Until Time 23
  24,                                     !- Hour 24
  0,                                      !- Minute 24
  1;                                      !- Value Until Time 24

OS:SubSurface,
  {7ee3a0b7-06d1-45a8-956f-27d489746a58}, !- Handle
  ZONE SUBSURFACE 2,                      !- Name
  FixedWindow,                            !- Sub Surface Type
  {0e4fc5b3-a825-4ea8-b17a-1e41c517921f}, !- Construction Name
  {839c054d-f84f-45cb-8fd4-1313e150ec4b}, !- Surface Name
  ,                                       !- Outside Boundary Condition Object
  0.5,                                    !- View Factor to Ground
  ,                                       !- Shading Control Name
  ,                                       !- Frame and Divider Name
  1,                                      !- Multiplier
  ,                                       !- Number of Vertices
  4.5, -2, 2.5,                           !- X,Y,Z Vertex 1 {m}
  4.5, -2, 0.5,                           !- X,Y,Z Vertex 2 {m}
  7.5, -2, 0.5,                           !- X,Y,Z Vertex 3 {m}
  7.5, -2, 2.5;                           !- X,Y,Z Vertex 4 {m}

OS:Construction,
  {0e4fc5b3-a825-4ea8-b17a-1e41c517921f}, !- Handle
  Double Pane Window,                     !- Name
  {279e3eb8-65d6-4662-8ad1-2c20c39a0b61}, !- Surface Rendering Name
  {8276a9bb-59f0-4e9e-ab99-1e79d988a87d}, !- Layer 1
  {6513df4f-e4a8-4707-8820-85fe41f0e084}, !- Layer 2
  {8276a9bb-59f0-4e9e-ab99-1e79d988a87d}; !- Layer 3

OS:WindowMaterial:Glazing,
  {8276a9bb-59f0-4e9e-ab99-1e79d988a87d}, !- Handle
  Glass Type 1,                           !- Name
  SpectralAverage,                        !- Optical Data Type
  ,                                       !- Window Glass Spectral Data Set Name
  0.003175,                               !- Thickness {m}
  0.86156,                                !- Solar Transmittance at Normal Incidence
  0.07846,                                !- Front Side Solar Reflectance at Normal Incidence
  0.07846,                                !- Back Side Solar Reflectance at Normal Incidence
  0.91325,                                !- Visible Transmittance at Normal Incidence
  0.082,                                  !- Front Side Visible Reflectance at Normal Incidence
  0.082,                                  !- Back Side Visible Reflectance at Normal Incidence
  0,                                      !- Infrared Transmittance at Normal Incidence
  0.84,                                   !- Front Side Infrared Hemispherical Emissivity
  0.84,                                   !- Back Side Infrared Hemispherical Emissivity
  1.06;                                   !- Conductivity {W/m-K}

OS:WindowMaterial:Gas,
  {6513df4f-e4a8-4707-8820-85fe41f0e084}, !- Handle
  Air Space Resistance,                   !- Name
  AIR,                                    !- Gas Type
  0.013;                                  !- Thickness {m}

OS:Surface,
  {839c054d-f84f-45cb-8fd4-1313e150ec4b}, !- Handle
  SUN ZONE SURFACE SOUTH,                 !- Name
  Wall,                                   !- Surface Type
  {d4bdcfb1-70ea-41a4-9f43-468989f926df}, !- Construction Name
  {04342d2f-736d-4746-8f8e-1bb4d7a34c16}, !- Space Name
  Outdoors,                               !- Outside Boundary Condition
  ,                                       !- Outside Boundary Condition Object
  SunExposed,                             !- Sun Exposure
  WindExposed,                            !- Wind Exposure
  0.5,                                    !- View Factor to Ground
  ,                                       !- Number of Vertices
  0, -2, 2.7,                             !- X,Y,Z Vertex 1 {m}
  0, -2, 0,                               !- X,Y,Z Vertex 2 {m}
  8, -2, 0,                               !- X,Y,Z Vertex 3 {m}
  8, -2, 2.7;                             !- X,Y,Z Vertex 4 {m}

OS:Construction,
  {d4bdcfb1-70ea-41a4-9f43-468989f926df}, !- Handle
  HWWALL,                                 !- Name
  {991684d3-626e-4abf-9952-9386584e20a6}, !- Surface Rendering Name
  {21ca24c4-8b62-41b0-a796-2b9a0ea237b7}, !- Layer 1
  {cb37d32e-c86e-4593-8506-c308d5aa004f}, !- Layer 2
  {53d8de51-3839-4d60-8a99-cdf183da52d3}; !- Layer 3

OS:Material,
  {21ca24c4-8b62-41b0-a796-2b9a0ea237b7}, !- Handle
  WOOD SIDING-1,                          !- Name