
OS:Version,
  {dc239f54-bf2f-4714-830d-1ff3e72f8654}, !- Handle
  1.11.5;                                 !- Version Identifier

OS:Site,
  {ab629a6e-936f-4f23-a3a7-f6ae1685f65b}, !- Handle
  GOLDEN COLORADO,                        !- Name
  39.8,                                   !- Latitude {deg}
  -104.9,                                 !- Longitude {deg}
  -7,                                     !- Time Zone {hr}
  1609,                                   !- Elevation {m}
  Country;                                !- Terrain

OS:Schedule:Week,
  {b513281e-2db7-44c2-bb10-fa610144c116}, !- Handle
  Week Sch 1,                             !- Name
  ,                                       !- Schedule Rendering Name
  {1b489a2d-96b5-4e26-9c49-f2909078379b}, !- Sunday Schedule:Day Name
  {1b489a2d-96b5-4e26-9c49-f2909078379b}, !- Monday Schedule:Day Name
  {1b489a2d-96b5-4e26-9c49-f2909078379b}, !- Tuesday Schedule:Day Name
  {1b489a2d-96b5-4e26-9c49-f2909078379b}, !- Wednesday Schedule:Day Name
  {1b489a2d-96b5-4e26-9c49-f2909078379b}, !- Thursday Schedule:Day Name
  {1b489a2d-96b5-4e26-9c49-f2909078379b}, !- Friday Schedule:Day Name
  {1b489a2d-96b5-4e26-9c49-f2909078379b}, !- Saturday Schedule:Day Name
  {1b489a2d-96b5-4e26-9c49-f2909078379b}, !- Holiday Schedule:Day Name
  {1b489a2d-96b5-4e26-9c49-f2909078379b}, !- SummerDesignDay Schedule:Day Name
  {1b489a2d-96b5-4e26-9c49-f2909078379b}, !- WinterDesignDay Schedule:Day Name
  {1b489a2d-96b5-4e26-9c49-f2909078379b}, !- CustomDay1 Schedule:Day Name
  {1b489a2d-96b5-4e26-9c49-f2909078379b}; !- CustomDay2 Schedule:Day Name

OS:Schedule:Day,
  {1b489a2d-96b5-4e26-9c49-f2909078379b}, !- Handle
  Day Sch 1,                              !- Name
  {03155a5e-1665-4a43-b3c7-4385586e23c5}, !- Schedule Type Limits Name
  ,                                       !- Interpolate to Timestep
  1,                                      !- Hour 1
  0,                                      !- Minute 1
  1,                                      !- Value Until Time 1
  2,                                      !- Hour 2
  0,                                      !- Minute 2
  1,                                      !- Value Until Time 2
  3,                                      !- Hour 3
  0,                                      !- Minute 3
  1,                                      !- Value Until Time 3
  4,                                      !- Hour 4
  0,                                      !- Minute 4
  1,                                      !- Value Until Time 4
  5,                                      !- Hour 5
  0,                                      !- Minute 5
  1,                                      !- Value Until Time 5
  6,                                      !- Hour 6
  0,                                      !- Minute 6
  1,                                      !- Value Until Time 6
  7,                                      !- Hour 7
  0,                                      !- Minute 7
  1,                                      !- Value Until Time 7
  8,                                      !- Hour 8
  0,                                      !- Minute 8
  1,                                      !- Value Until Time 8
  9,                                      !- Hour 9
  0,                                      !- Minute 9
  1,                                      !- Value Until Time 9
  10,                                     !- Hour 10
  0,                                      !- Minute 10
  1,                                      !- Value Until Time 10
  11,                                     !- Hour 11
  0,                                      !- Minute 11
  1,                                      !- Value Until Time 11
  12,                                     !- Hour 12
  0,                                      !- Minute 12
  1,                                      !- Value Until Time 12
  13,                                     !- Hour 13
  0,                                      !- Minute 13
  1,                                      !- Value Until Time 13
  14,                                     !- Hour 14
  0,                                      !- Minute 14
  1,                                      !- Value Until Time 14
  15,                                     !- Hour 15
  0,                                      !- Minute 15
  1,                                      !- Value Until Time 15
  16,                                     !- Hour 16
  0,                                      !- Minute 16
  1,                                      !- Value Until Time 16
  17,                                     !- Hour 17
  0,                                      !- Minute 17
  1,                                      !- Value Until Time 17
  18,                                     !- Hour 18
  0,                                      !- Minute 18
  1,                                      !- Value Until Time 18
  19,                                     !- Hour 19
  0,                                      !- Minute 19
  1,                                      !- Value Until Time 19
  20,                                     !- Hour 20
  0,                                      !- Minute 20
  1,                                      !- Value Until Time 20
  21,                                     !- Hour 21
  0,                                      !- Minute 21
  1,                                      !- Value Until Time 21
  22,                                     !- Hour 22
  0,                                      !- Minute 22
  1,                                      !- Value Until Time 22
  23,                                     !- Hour 23
  0,                                      !- Minute 23
  1,                                      !- Value Until Time 23
  24,                                     !- Hour 24
  0,                                      !- Minute 24
  1;                                      !- Value Until Time 24

OS:ScheduleTypeLimits,
  {03155a5e-1665-4a43-b3c7-4385586e23c5}, !- Handle
  Fraction,                               !- Name
  0,                                      !- Lower Limit Value
  1,                                      !- Upper Limit Value
  Continuous;                             !- Numeric Type

OS:Schedule:Week,
  {f33cbe4d-fc59-4426-9ce7-5cf9d0a70e9b}, !- Handle
  Zone Cooling Setpoint All Weeks,        !- Name
  ,                                       !- Schedule Rendering Name
  {bec9f303-86e4-4fa4-bb6b-72c02268110c}, !- Sunday Schedule:Day Name
  {bec9f303-86e4-4fa4-bb6b-72c02268110c}, !- Monday Schedule:Day Name
  {bec9f303-86e4-4fa4-bb6b-72c02268110c}, !- Tuesday Schedule:Day Name
  {bec9f303-86e4-4fa4-bb6b-72c02268110c}, !- Wednesday Schedule:Day Name
  {bec9f303-86e4-4fa4-bb6b-72c02268110c}, !- Thursday Schedule:Day Name
  {bec9f303-86e4-4fa4-bb6b-72c02268110c}, !- Friday Schedule:Day Name
  {bec9f303-86e4-4fa4-bb6b-72c02268110c}, !- Saturday Schedule:Day Name
  {bec9f303-86e4-4fa4-bb6b-72c02268110c}, !- Holiday Schedule:Day Name
  {bec9f303-86e4-4fa4-bb6b-72c02268110c}, !- SummerDesignDay Schedule:Day Name
  {bec9f303-86e4-4fa4-bb6b-72c02268110c}, !- WinterDesignDay Schedule:Day Name
  {bec9f303-86e4-4fa4-bb6b-72c02268110c}, !- CustomDay1 Schedule:Day Name
  {bec9f303-86e4-4fa4-bb6b-72c02268110c}; !- CustomDay2 Schedule:Day Name

OS:Schedule:Day,
  {bec9f303-86e4-4fa4-bb6b-72c02268110c}, !- Handle
  Zone Cooling Setpoint All Days,         !- Name
  {3750f3f1-1025-4dc4-9984-29ed559587c0}, !- Schedule Type Limits Name
  ,                                       !- Interpolate to Timestep
  1,                                      !- Hour 1
  0,                                      !- Minute 1
  27,                                     !- Value Until Time 1
  2,                                      !- Hour 2
  0,                                      !- Minute 2
  27,                                     !- Value Until Time 2
  3,                                      !- Hour 3
  0,                                      !- Minute 3
  27,                                     !- Value Until Time 3
  4,                                      !- Hour 4
  0,                                      !- Minute 4
  27,                                     !- Value Until Time 4
  5,                                      !- Hour 5
  0,                                      !- Minute 5
  27,                                     !- Value Until Time 5
  6,                                      !- Hour 6
  0,                                      !- Minute 6
  27,                                     !- Value Until Time 6
  7,                                      !- Hour 7
  0,                                      !- Minute 7
  27,                                     !- Value Until Time 7
  8,                                      !- Hour 8
  0,                                      !- Minute 8
  27,                                     !- Value Until Time 8
  9,                                      !- Hour 9
  0,                                      !- Minute 9
  27,                                     !- Value Until Time 9
  10,                                     !- Hour 10
  0,                                      !- Minute 10
  27,                                     !- Value Until Time 10
  11,                                     !- Hour 11
  0,                                      !- Minute 11
  27,                                     !- Value Until Time 11
  12,                                     !- Hour 12
  0,                                      !- Minute 12
  27,                                     !- Value Until Time 12
  13,                                     !- Hour 13
  0,                                      !- Minute 13
  27,                                     !- Value Until Time 13
  14,                                     !- Hour 14
  0,                                      !- Minute 14
  27,                                     !- Value Until Time 14
  15,                                     !- Hour 15
  0,                                      !- Minute 15
  27,                                     !- Value Until Time 15
  16,                                     !- Hour 16
  0,                                      !- Minute 16
  27,                                     !- Value Until Time 16
  17,                                     !- Hour 17
  0,                                      !- Minute 17
  27,                                     !- Value Until Time 17
  18,                                     !- Hour 18
  0,                                      !- Minute 18
  27,                                     !- Value Until Time 18
  19,                                     !- Hour 19
  0,                                      !- Minute 19
  27,                                     !- Value Until Time 19
  20,                                     !- Hour 20
  0,                                      !- Minute 20
  27,                                     !- Value Until Time 20
  21,                                     !- Hour 21
  0,                                      !- Minute 21
  27,                                     !- Value Until Time 21
  22,                                     !- Hour 22
  0,                                      !- Minute 22
  27,                                     !- Value Until Time 22
  23,                                     !- Hour 23
  0,                                      !- Minute 23
  27,                                     !- Value Until Time 23
  24,                                     !- Hour 24
  0,                                      !- Minute 24
  27;                                     !- Value Until Time 24

OS:ScheduleTypeLimits,
  {3750f3f1-1025-4dc4-9984-29ed559587c0}, !- Handle
  Temperature,                            !- Name
  -60,                                    !- Lower Limit Value
  200,                                    !- Upper Limit Value
  Continuous,                             !- Numeric Type
  Temperature;                            !- Unit Type

OS:Schedule:Day,
  {7cb828a0-7a36-4301-a8f5-5549d94cdc65}, !- Handle
  Zone Heating Setpoint All Days,         !- Name
  {3750f3f1-1025-4dc4-9984-29ed559587c0}, !- Schedule Type Limits Name
  ,                                       !- Interpolate to Timestep
  1,                                      !- Hour 1
  0,                                      !- Minute 1
  20,                                     !- Value Until Time 1
  2,                                      !- Hour 2
  0,                                      !- Minute 2
  20,                                     !- Value Until Time 2
  3,                                      !- Hour 3
  0,                                      !- Minute 3
  20,                                     !- Value Until Time 3
  4,                                      !- Hour 4
  0,                                      !- Minute 4
  20,                                     !- Value Until Time 4
  5,                                      !- Hour 5
  0,                                      !- Minute 5
  20,                                     !- Value Until Time 5
  6,                                      !- Hour 6
  0,                                      !- Minute 6
  20,                                     !- Value Until Time 6
  7,                                      !- Hour 7
  0,                                      !- Minute 7
  20,                                     !- Value Until Time 7
  8,                                      !- Hour 8
  0,                                      !- Minute 8
  20,                                     !- Value Until Time 8
  9,                                      !- Hour 9
  0,                                      !- Minute 9
  20,                                     !- Value Until Time 9
  10,                                     !- Hour 10
  0,                                      !- Minute 10
  20,                                     !- Value Until Time 10
  11,                                     !- Hour 11
  0,                                      !- Minute 11
  20,                                     !- Value Until Time 11
  12,                                     !- Hour 12
  0,                                      !- Minute 12
  20,                                     !- Value Until Time 12
  13,                                     !- Hour 13
  0,                                      !- Minute 13
  20,                                     !- Value Until Time 13
  14,                                     !- Hour 14
  0,                                      !- Minute 14
  20,                                     !- Value Until Time 14
  15,                                     !- Hour 15
  0,                                      !- Minute 15
  20,                                     !- Value Until Time 15
  16,                                     !- Hour 16
  0,                                      !- Minute 16
  20,                                     !- Value Until Time 16
  17,                                     !- Hour 17
  0,                                      !- Minute 17
  20,                                     !- Value Until Time 17
  18,                                     !- Hour 18
  0,                                      !- Minute 18
  20,                                     !- Value Until Time 18
  19,                                     !- Hour 19
  0,                                      !- Minute 19
  20,                                     !- Value Until Time 19
  20,                                     !- Hour 20
  0,                                      !- Minute 20
  20,                                     !- Value Until Time 20
  21,                                     !- Hour 21
  0,                                      !- Minute 21
  20,                                     !- Value Until Time 21
  22,                                     !- Hour 22
  0,                                      !- Minute 22
  20,                                     !- Value Until Time 22
  23,                                     !- Hour 23
  0,                                      !- Minute 23
  20,                                     !- Value Until Time 23
  24,                                     !- Hour 24
  0,                                      !- Minute 24
  20;                                     !- Value Until Time 24

OS:Material,
  {d2387a27-c394-421a-b74c-0dbd8bb7b6a4}, !- Handle
  ROOF DECK,                              !- Name
  Rough,                                  !- Roughness
  0.019,                                  !- Thickness {m}
  0.14,                                   !- Conductivity {W/m-K}
  530,                                    !- Density {kg/m3}
  900,                                    !- Specific Heat {J/kg-K}
  0.9,                                    !- Thermal Absorptance
  0.6,                                    !- Solar Absorptance
  0.6;                                    !- Visible Absorptance

OS:Construction,
  {e3e6345d-28a2-4300-97b3-22adbf452dd7}, !- Handle
  LTROOF,                                 !- Name
  {fd10c9ef-ae1e-465a-b92a-f2cf5f192c33}, !- Surface Rendering Name
  {d2387a27-c394-421a-b74c-0dbd8bb7b6a4}, !- Layer 1
  {c1eefc72-5980-4466-9f64-b93f9baf4bc8}, !- Layer 2
  {06a0540d-327a-4bd6-9958-1a0e0c1f031c}; !- Layer 3

OS:Material,
  {c1eefc72-5980-4466-9f64-b93f9baf4bc8}, !- Handle
  FIBERGLASS QUILT-2,                     !- Name
  Rough,                                  !- Roughness
  0.1118,                                 !- Thickness {m}
  0.04,                                   !- Conductivity {W/m-K}
  12,                                     !- Density {kg/m3}
  840,                                    !- Specific Heat {J/kg-K}
  0.9,                                    !- Thermal Absorptance
  0.6,                                    !- Solar Absorptance
  0.6;                                    !- Visible Absorptance

OS:Material,
  {06a0540d-327a-4bd6-9958-1a0e0c1f031c}, !- Handle
  PLASTERBOARD-2,                         !- Name
  Rough,                                  !- Roughness
  0.01,                                   !- Thickness {m}
  0.16,                                   !- Conductivity {W/m-K}
  950,                                    !- Density {kg/m3}
  840,                                    !- Specific Heat {J/kg-K}
  0.9,                                    !- Thermal Absorptance
  0.6,                                    !- Solar Absorptance
  0.6;                                    !- Visible Absorptance

OS:Output:Variable,
  {e3bfffb8-7920-48e6-a877-f959d30a3024}, !- Handle
  {2298015e-ecc4-4af5-9866-2155c998daac}, !- Name
  *,                                      !- Key Value
  Surface Window Transmitted Solar Radiation Energy, !- Variable Name
  Hourly;                                 !- Reporting Frequency

OS:Material,
  {1f9e08aa-9536-4ec1-9e95-33f24438d0a4}, !- Handle
  CONCRETE BLOCK,                         !- Name
  Rough,                                  !- Roughness
  0.1,                                    !- Thickness {m}
  0.51,                                   !- Conductivity {W/m-K}
  1400,                                   !- Density {kg/m3}
  1000,                                   !- Specific Heat {J/kg-K}
  0.9,                                    !- Thermal Absorptance
  0.6,                                    !- Solar Absorptance
  0.6;                                    !- Visible Absorptance

OS:Schedule:Year,
  {8621e663-39fb-439c-97a5-f62911d979f3}, !- Handle
  Cooling Setpoints,                      !- Name
  {3750f3f1-1025-4dc4-9984-29ed559587c0}, !- Schedule Type Limits Name
  12,                                     !- Month 1
  31,                                     !- Day 1
  {f33cbe4d-fc59-4426-9ce7-5cf9d0a70e9b}; !- Week Schedule Until Date 1

OS:YearDescription,
  {b52bf6e0-92d3-48d5-948d-640e358998c9}; !- Handle

OS:Surface,
  {04e60730-51fa-4216-803a-0cac86b8bfdb}, !- Handle
  ZONE SURFACE EAST,                      !- Name
  Wall,                                   !- Surface Type
  {cf5257c1-2c33-4e60-a1fd-f8215c6ac682}, !- Construction Name
  {d854497d-a684-40a9-85c0-f792382ea7d7}, !- Space Name
  Outdoors,                               !- Outside Boundary Condition
  ,                                       !- Outside Boundary Condition Object
  SunExposed,                             !- Sun Exposure
  WindExposed,                            !- Wind Exposure
  0.5,                                    !- View Factor to Ground
  ,                                       !- Number of Vertices
  8, 0, 2.7,                              !- X,Y,Z Vertex 1 {m}
  8, 0, 0,                                !- X,Y,Z Vertex 2 {m}
  8, 6, 0,                                !- X,Y,Z Vertex 3 {m}
  8, 6, 2.7;                              !- X,Y,Z Vertex 4 {m}

OS:Construction,
  {cf5257c1-2c33-4e60-a1fd-f8215c6ac682}, !- Handle
  HWWALL,                                 !- Name
  {f0123d37-6821-4558-a63b-5783c430772e}, !- Surface Rendering Name
  {87c98815-553c-4b6b-98b9-1ee97f748d67}, !- Layer 1
  {edfce894-3201-4cfa-b9d7-6bf42b2ee82c}, !- Layer 2
  {1f9e08aa-9536-4ec1-9e95-33f24438d0a4}; !- Layer 3

OS:Material,
  {87c98815-553c-4b6b-98b9-1ee97f748d67}, !- Handle
  WOOD SIDING-1,                          !- Name
  Rough,                                  !- Roughness
  0.009,                                  !- Thickness {m}
  0.14,                                   !- Conductivity {W/m-K}
  530,                                    !- Density {kg/m3}
  900,                                    !- Specific Heat {J/kg-K}
  0.9,                                    !- Thermal Absorptance
  0.6,                                    !- Solar Absorptance
  0.6;                                    !- Visible Absorptance

OS:Material,
  {edfce894-3201-4cfa-b9d7-6bf42b2ee82c}, !- Handle
  FOAM INSULATION,                        !- Name
  Rough,                                  !- Roughness
  0.0615,                                 !- Thickness {m}
  0.04,                                   !- Conductivity {W/m-K}
  10,                                     !- Density {kg/m3}
  1400,                                   !- Specific Heat {J/kg-K}
  0.9,                                    !- Thermal Absorptance
  0.6,                                    !- Solar Absorptance
  0.6;                                    !- Visible Absorptance

OS:ThermalZone,
  {fcca0906-f732-41d4-bb1a-d61410e0d7e3}, !- Handle
  ZONE ONE Thermal Zone,                  !- Name
  1,                                      !- Multiplier
  2.7,                                    !- Ceiling Height {m}
  129.6,                                  !- Volume {m3}
  ,                                       !- Floor Area {m2}
  ,                                       !- Zone Inside Convection Algorithm
  ,                                       !- Zone Outside Convection Algorithm
  ,                                       !- Zone Conditioning Equipment List Name
  {1b03eeae-0c9f-4fa1-b24a-22f8bb914145}, !- Zone Air Inlet Port List
  {b92f9765-afe8-4630-8cf4-f36bf5001c7b}, !- Zone Air Exhaust Port List
  {055ffa36-05c6-43ec-9c48-8ce8440d62ac}, !- Zone Air Node Name
  ,                                       !- Zone Return Air Node Name
  ,                                       !- Primary Daylighting Control Name
  ,                                       !- Fraction of Zone Controlled by Primary Daylighting Control
  ,                                       !- Secondary Daylighting Control Name
  ,                                       !- Fraction of Zone Controlled by Secondary Daylighting Control
  ,                                       !- Illuminance Map Name
  {41fcd3dd-2453-4e4b-8ff3-5daf8d6fd199}, !- Group Rendering Name
  {a9cc2958-0845-49d3-8941-5e187a400b56}, !- Thermostat Name
  No;                                     !- Use Ideal Air Loads

OS:Node,
  {c767e71a-0aa7-4917-afe4-92ba340d6936}, !- Handle
  {94a11d5e-ee4d-4504-8a5f-0f14695ec615}, !- Name
  {055ffa36-05c6-43ec-9c48-8ce8440d62ac}, !- Inlet Port
  ;                                       !- Outlet Port

OS:Connection,
  {055ffa36-05c6-43ec-9c48-8ce8440d62ac}, !- Handle
  {028ae0e1-4569-441c-be9c-a993dd76538a}, !- Name
  {fcca0906-f732-41d4-bb1a-d61410e0d7e3}, !- Source Object
  11,                                     !- Outlet Port
  {c767e71a-0aa7-4917-afe4-92ba340d6936}, !- Target Object
  2;                                      !- Inlet Port

OS:PortList,
  {1b03eeae-0c9f-4fa1-b24a-22f8bb914145}, !- Handle
  {32052dab-a7e2-4ec8-93bb-9815b2ea67d3}, !- Name
  {fcca0906-f732-41d4-bb1a-d61410e0d7e3}; !- HVAC Component

OS:PortList,
  {b92f9765-afe8-4630-8cf4-f36bf5001c7b}, !- Handle
  {fcd276c8-6576-443a-b525-71ca1079d5e1}, !- Name
  {fcca0906-f732-41d4-bb1a-d61410e0d7e3}; !- HVAC Component

OS:Sizing:Zone,
  {8ffa5d61-12c8-4a3a-9d5b-ceb9a661eb79}, !- Handle
  {fcca0906-f732-41d4-bb1a-d61410e0d7e3}, !- Zone or ZoneList Name
  SupplyAirTemperature,                   !- Zone Cooling Design Supply Air Temperature Input Method
  14,                                     !- Zone Cooling Design Supply Air Temperature {C}
  11.11,                                  !- Zone Cooling Design Supply Air Temperature Difference {deltaC}
  SupplyAirTemperature,                   !- Zone Heating Design Supply Air Temperature Input Method
  40,                                     !- Zone Heating Design Supply Air Temperature {C}
  11.11,                                  !- Zone Heating Design Supply Air Temperature Difference {deltaC}
  0.0085,                                 !- Zone Cooling Design Supply Air Humidity Ratio {kg-H2O/kg-air}
  0.008,                                  !- Zone Heating Design Supply Air Humidity Ratio {kg-H2O/kg-air}
  ,                                       !- Zone Heating Sizing Factor
  ,                                       !- Zone Cooling Sizing Factor
  DesignDay,                              !- Cooling Design Air Flow Method
  ,                                       !- Cooling Design Air Flow Rate {m3/s}
  ,                                       !- Cooling Minimum Air Flow per Zone Floor Area {m3/s-m2}
  ,                                       !- Cooling Minimum Air Flow {m3/s}
  ,                                       !- Cooling Minimum Air Flow Fraction
  DesignDay,                              !- Heating Design Air Flow Method
  ,                                       !- Heating Design Air Flow Rate {m3/s}
  ,                                       !- Heating Maximum Air Flow per Zone Floor Area {m3/s-m2}
  ,                                       !- Heating Maximum Air Flow {m3/s}
  ,                                       !- Heating Maximum Air Flow Fraction
  ,                                       !- Design Zone Air Distribution Effectiveness in Cooling Mode
  ,                                       !- Design Zone Air Distribution Effectiveness in Heating Mode
  No,                                     !- Account for Dedicated Outdoor Air System
  NeutralSupplyAir,                       !- Dedicated Outdoor Air System Control Strategy
  autosize,                               !- Dedicated Outdoor Air Low Setpoint Temperature for Design {C}
  autosize;                               !- Dedicated Outdoor Air High Setpoint Temperature for Design {C}

OS:ZoneHVAC:EquipmentList,
  {1f771e53-d82e-498f-9543-5e7add771e71}, !- Handle
  {894e5c2f-803c-43a3-a397-7796cf99c898}, !- Name
  {fcca0906-f732-41d4-bb1a-d61410e0d7e3}; !- Thermal Zone

OS:Space,
  {d854497d-a684-40a9-85c0-f792382ea7d7}, !- Handle
  ZONE ONE,                               !- Name
  ,                                       !- Space Type Name
  ,                                       !- Default Construction Set Name
  ,                                       !- Default Schedule Set Name
  0,                                      !- Direction of Relative North {deg}
  0,                                      !- X Origin {m}
  0,                                      !- Y Origin {m}
  0,                                      !- Z Origin {m}
  ,                                       !- Building Story Name
  {fcca0906-f732-41d4-bb1a-d61410e0d7e3}; !- Thermal Zone Name

OS:ThermostatSetpoint:DualSetpoint,
  {a9cc2958-0845-49d3-8941-5e187a400b56}, !- Handle
  {ccbbeb7a-4f95-4ca3-bc71-3956dd198269}, !- Name
  {a874949e-a6d6-48b5-b2d9-4d517eec8056}, !- Heating Setpoint Temperature Schedule Name
  {8621e663-39fb-439c-97a5-f62911d979f3}; !- Cooling Setpoint Temperature Schedule Name

OS:Schedule:Year,
  {a874949e-a6d6-48b5-b2d9-4d517eec8056}, !- Handle
  Heating Setpoints,                      !- Name
  {3750f3f1-1025-4dc4-9984-29ed559587c0}, !- Schedule Type Limits Name
  12,                                     !- Month 1
  31,                                     !- Day 1
  {16177b00-4eeb-483f-9b24-4bf06f26277b}; !- Week Schedule Until Date 1

OS:Schedule:Week,
  {16177b00-4eeb-483f-9b24-4bf06f26277b}, !- Handle
  Zone Heating Setpoint All Weeks,        !- Name
  ,                                       !- Schedule Rendering Name
  {7cb828a0-7a36-4301-a8f5-5549d94cdc65}, !- Sunday Schedule:Day Name
  {7cb828a0-7a36-4301-a8f5-5549d94cdc65}, !- Monday Schedule:Day Name
  {7cb828a0-7a36-4301-a8f5-5549d94cdc65}, !- Tuesday Schedule:Day Name
  {7cb828a0-7a36-4301-a8f5-5549d94cdc65}, !- Wednesday Schedule:Day Name
  {7cb828a0-7a36-4301-a8f5-5549d94cdc65}, !- Thursday Schedule:Day Name
  {7cb828a0-7a36-4301-a8f5-5549d94cdc65}, !- Friday Schedule:Day Name
  {7cb828a0-7a36-4301-a8f5-5549d94cdc65}, !- Saturday Schedule:Day Name
  {7cb828a0-7a36-4301-a8f5-5549d94cdc65}, !- Holiday Schedule:Day Name
  {7cb828a0-7a36-4301-a8f5-5549d94cdc65}, !- SummerDesignDay Schedule:Day Name