
OS:Version,
  {e1f32a8f-1b22-414e-8d48-72e52aacb8bf}, !- Handle
  1.11.5;                                 !- Version Identifier

OS:Site,
  {9871bb9d-b5d8-4e89-ab4c-570a3aad7a9a}, !- Handle
  GOLDEN COLORADO,                        !- Name
  39.8,                                   !- Latitude {deg}
  -104.9,                                 !- Longitude {deg}
  -7,                                     !- Time Zone {hr}
  1609,                                   !- Elevation {m}
  Country;                                !- Terrain

OS:Surface,
  {dcb51403-37e7-4128-86e7-c265f4c7f5ec}, !- Handle
  ZONE SURFACE EAST,                      !- Name
  Wall,                                   !- Surface Type
  {2b49d6f7-51c4-4fef-b0b8-8b7f53774441}, !- Construction Name
  {283d80d0-75bd-4728-b8d3-36d580f7c924}, !- Space Name
  Outdoors,                               !- Outside Boundary Condition
  ,                                       !- Outside Boundary Condition Object
  SunExposed,                             !- Sun Exposure
  WindExposed,                            !- Wind Exposure
  0.5,                                    !- View Factor to Ground
  ,                                       !- Number of Vertices
  8, 0, 2.7,                              !- X,Y,Z Vertex 1 {m}
  8, 0, 0,                                !- X,Y,Z Vertex 2 {m}
  8, 6, 0,                                !- X,Y,Z Vertex 3 {m}
  8, 6, 2.7;                              !- X,Y,Z Vertex 4 {m}

OS:Construction,
  {2b49d6f7-51c4-4fef-b0b8-8b7f53774441}, !- Handle
  HWWALL,                                 !- Name
  {a6ee18c3-c6c1-4649-b5ad-c59d4b503801}, !- Surface Rendering Name
  {80c124c0-4ac8-470c-808a-30d0f2d64d5e}, !- Layer 1
  {bfab27a7-65f4-4ab4-b695-58abe884f724}, !- Layer 2
  {e8d51e7f-a60b-4b16-9c6e-723b7a7e992d}; !- Layer 3

OS:Material,
  {80c124c0-4ac8-470c-808a-30d0f2d64d5e}, !- Handle
  WOOD SIDING-1,                          !- Name
  Rough,                                  !- Roughness
  0.009,                                  !- Thickness {m}
  0.14,                                   !- Conductivity {W/m-K}
  530,                                    !- Density {kg/m3}
  900,                                    !- Specific Heat {J/kg-K}
  0.9,                                    !- Thermal Absorptance
  0.6,                                    !- Solar Absorptance
  0.6;                                    !- Visible Absorptance

OS:Material,
  {bfab27a7-65f4-4ab4-b695-58abe884f724}, !- Handle
  FOAM INSULATION,                        !- Name
  Rough,                                  !- Roughness
  0.0615,                                 !- Thickness {m}
  0.04,                                   !- Conductivity {W/m-K}
  10,                                     !- Density {kg/m3}
  1400,                                   !- Specific Heat {J/kg-K}
  0.9,                                    !- Thermal Absorptance
  0.6,                                    !- Solar Absorptance
  0.6;                                    !- Visible Absorptance

OS:Material,
  {e8d51e7f-a60b-4b16-9c6e-723b7a7e992d}, !- Handle
  CONCRETE BLOCK,                         !- Name
  Rough,                                  !- Roughness
  0.1,                                    !- Thickness {m}
  0.51,                                   !- Conductivity {W/m-K}
  1400,                                   !- Density {kg/m3}
  1000,                                   !- Specific Heat {J/kg-K}
  0.9,                                    !- Thermal Absorptance
  0.6,                                    !- Solar Absorptance
  0.6;                                    !- Visible Absorptance

OS:ThermalZone,
  {3a58d823-9e4f-426c-995d-a4403ccdfeaa}, !- Handle
  ZONE ONE Thermal Zone,                  !- Name
  1,                                      !- Multiplier
  2.7,                                    !- Ceiling Height {m}
  129.6,                                  !- Volume {m3}
  ,                                       !- Floor Area {m2}
  ,                                       !- Zone Inside Convection Algorithm
  ,                                       !- Zone Outside Convection Algorithm
  ,                                       !- Zone Conditioning Equipment List Name
  {a45159e3-287d-448f-92ee-268700ceb0b0}, !- Zone Air Inlet Port List
  {cb711fb1-5fbd-47fa-92f6-f5c5f1fa8f58}, !- Zone Air Exhaust Port List
  {4add1005-fd0e-4e83-b15e-3e56606557d3}, !- Zone Air Node Name
  ,                                       !- Zone Return Air Node Name
  ,                                       !- Primary Daylighting Control Name
  ,                                       !- Fraction of Zone Controlled by Primary Daylighting Control
  ,                                       !- Secondary Daylighting Control Name
  ,                                       !- Fraction of Zone Controlled by Secondary Daylighting Control
  ,                                       !- Illuminance Map Name
  {09c5d0c7-3642-4ced-9c5d-703db7c2b609}, !- Group Rendering Name
  {ef0bfe7a-942c-4c29-b6d3-ffb9e49d3fc7}, !- Thermostat Name
  No;                                     !- Use Ideal Air Loads

OS:Node,
  {ea6e528c-fbd4-4a82-a2f0-44c7883ce957}, !- Handle
  {d9810471-537d-4869-a35e-2f534fd0493d}, !- Name
  {4add1005-fd0e-4e83-b15e-3e56606557d3}, !- Inlet Port
  ;                                       !- Outlet Port

OS:Connection,
  {4add1005-fd0e-4e83-b15e-3e56606557d3}, !- Handle
  {0c264bce-dcc8-4a56-b8ea-789a69b315f9}, !- Name
  {3a58d823-9e4f-426c-995d-a4403ccdfeaa}, !- Source Object
  11,                                     !- Outlet Port
  {ea6e528c-fbd4-4a82-a2f0-44c7883ce957}, !- Target Object
  2;                                      !- Inlet Port

OS:PortList,
  {a45159e3-287d-448f-92ee-268700ceb0b0}, !- Handle
  {30e5db9a-f865-41b7-b9a7-1ba1b56672b4}, !- Name
  {3a58d823-9e4f-426c-995d-a4403ccdfeaa}; !- HVAC Component

OS:PortList,
  {cb711fb1-5fbd-47fa-92f6-f5c5f1fa8f58}, !- Handle
  {af6492eb-5c40-4f68-acba-c842b818e580}, !- Name
  {3a58d823-9e4f-426c-995d-a4403ccdfeaa}; !- HVAC Component

OS:Sizing:Zone,
  {64f9fe64-422c-4a39-947c-720bf8e490bd}, !- Handle
  {3a58d823-9e4f-426c-995d-a4403ccdfeaa}, !- Zone or ZoneList Name
  SupplyAirTemperature,                   !- Zone Cooling Design Supply Air Temperature Input Method
  14,                                     !- Zone Cooling Design Supply Air Temperature {C}
  11.11,                                  !- Zone Cooling Design Supply Air Temperature Difference {deltaC}
  SupplyAirTemperature,                   !- Zone Heating Design Supply Air Temperature Input Method
  40,                                     !- Zone Heating Design Supply Air Temperature {C}
  11.11,                                  !- Zone Heating Design Supply Air Temperature Difference {deltaC}
  0.0085,                                 !- Zone Cooling Design Supply Air Humidity Ratio {kg-H2O/kg-air}
  0.008,                                  !- Zone Heating Design Supply Air Humidity Ratio {kg-H2O/kg-air}
  ,                                       !- Zone Heating Sizing Factor
  ,                                       !- Zone Cooling Sizing Factor
  DesignDay,                              !- Cooling Design Air Flow Method
  ,                                       !- Cooling Design Air Flow Rate {m3/s}
  ,                                       !- Cooling Minimum Air Flow per Zone Floor Area {m3/s-m2}
  ,                                       !- Cooling Minimum Air Flow {m3/s}
  ,                                       !- Cooling Minimum Air Flow Fraction
  DesignDay,                              !- Heating Design Air Flow Method
  ,                                       !- Heating Design Air Flow Rate {m3/s}
  ,                                       !- Heating Maximum Air Flow per Zone Floor Area {m3/s-m2}
  ,                                       !- Heating Maximum Air Flow {m3/s}
  ,                                       !- Heating Maximum Air Flow Fraction
  ,                                       !- Design Zone Air Distribution Effectiveness in Cooling Mode
  ,                                       !- Design Zone Air Distribution Effectiveness in Heating Mode
  No,                                     !- Account for Dedicated Outdoor Air System
  NeutralSupplyAir,                       !- Dedicated Outdoor Air System Control Strategy
  autosize,                               !- Dedicated Outdoor Air Low Setpoint Temperature for Design {C}
  autosize;                               !- Dedicated Outdoor Air High Setpoint Temperature for Design {C}

OS:ZoneHVAC:EquipmentList,
  {ef6ef9b7-c4d0-42fa-b9f7-0f614d0c8d69}, !- Handle
  {89ccf0f2-e6b8-43f6-b1ca-db09689654e0}, !- Name
  {3a58d823-9e4f-426c-995d-a4403ccdfeaa}; !- Thermal Zone

OS:Space,
  {283d80d0-75bd-4728-b8d3-36d580f7c924}, !- Handle
  ZONE ONE,                               !- Name
  ,                                       !- Space Type Name
  ,                                       !- Default Construction Set Name
  ,                                       !- Default Schedule Set Name
  0,                                      !- Direction of Relative North {deg}
  0,                                      !- X Origin {m}
  0,                                      !- Y Origin {m}
  0,                                      !- Z Origin {m}
  ,                                       !- Building Story Name
  {3a58d823-9e4f-426c-995d-a4403ccdfeaa}, !- Thermal Zone Name
  ,                                       !- Part of Total Floor Area
  ;                                       !- Design Specification Outdoor Air Object Name

OS:ThermostatSetpoint:DualSetpoint,
  {ef0bfe7a-942c-4c29-b6d3-ffb9e49d3fc7}, !- Handle
  {a868a4cf-42e0-4de1-be43-05b251239127}, !- Name
  {6e7ed79a-31ed-4e9e-8e69-179fcfe9dad0}, !- Heating Setpoint Temperature Schedule Name
  {63b377be-960b-4389-bfb3-866357e72c69}; !- Cooling Setpoint Temperature Schedule Name

OS:Schedule:Year,
  {6e7ed79a-31ed-4e9e-8e69-179fcfe9dad0}, !- Handle
  Heating Setpoints,                      !- Name
  {a4cbb0f5-a36e-4d8a-bb7e-6c9b1032c799}, !- Schedule Type Limits Name
  12,                                     !- Month 1
  31,                                     !- Day 1
  {b31f7623-4486-40e1-aa9b-7eceb4aa9bc2}; !- Week Schedule Until Date 1

OS:ScheduleTypeLimits,
  {a4cbb0f5-a36e-4d8a-bb7e-6c9b1032c799}, !- Handle
  Temperature,                            !- Name
  -60,                                    !- Lower Limit Value
  200,                                    !- Upper Limit Value
  Continuous,                             !- Numeric Type
  Temperature;                            !- Unit Type

OS:Schedule:Week,
  {b31f7623-4486-40e1-aa9b-7eceb4aa9bc2}, !- Handle
  Zone Heating Setpoint All Weeks,        !- Name
  ,                                       !- Schedule Rendering Name
  {11fbed8c-3e41-4f22-8923-11c7b366385e}, !- Sunday Schedule:Day Name
  {11fbed8c-3e41-4f22-8923-11c7b366385e}, !- Monday Schedule:Day Name
  {11fbed8c-3e41-4f22-8923-11c7b366385e}, !- Tuesday Schedule:Day Name
  {11fbed8c-3e41-4f22-8923-11c7b366385e}, !- Wednesday Schedule:Day Name
  {11fbed8c-3e41-4f22-8923-11c7b366385e}, !- Thursday Schedule:Day Name
  {11fbed8c-3e41-4f22-8923-11c7b366385e}, !- Friday Schedule:Day Name
  {11fbed8c-3e41-4f22-8923-11c7b366385e}, !- Saturday Schedule:Day Name
  {11fbed8c-3e41-4f22-8923-11c7b366385e}, !- Holiday Schedule:Day Name
  {11fbed8c-3e41-4f22-8923-11c7b366385e}, !- SummerDesignDay Schedule:Day Name
  {11fbed8c-3e41-4f22-8923-11c7b366385e}, !- WinterDesignDay Schedule:Day Name
  {11fbed8c-3e41-4f22-8923-11c7b366385e}, !- CustomDay1 Schedule:Day Name
  {11fbed8c-3e41-4f22-8923-11c7b366385e}; !- CustomDay2 Schedule:Day Name

OS:Schedule:Day,
  {11fbed8c-3e41-4f22-8923-11c7b366385e}, !- Handle
  Zone Heating Setpoint All Days,         !- Name
  {a4cbb0f5-a36e-4d8a-bb7e-6c9b1032c799}, !- Schedule Type Limits Name
  ,                                       !- Interpolate to Timestep
  1,                                      !- Hour 1
  0,                                      !- Minute 1
  20,                                     !- Value Until Time 1
  2,                                      !- Hour 2
  0,                                      !- Minute 2
  20,                                     !- Value Until Time 2
  3,                                      !- Hour 3
  0,                                      !- Minute 3
  20,                                     !- Value Until Time 3
  4,                                      !- Hour 4
  0,                                      !- Minute 4
  20,                                     !- Value Until Time 4
  5,                                      !- Hour 5
  0,                                      !- Minute 5
  20,                                     !- Value Until Time 5
  6,                                      !- Hour 6
  0,                                      !- Minute 6
  20,                                     !- Value Until Time 6
  7,                                      !- Hour 7
  0,                                      !- Minute 7
  20,                                     !- Value Until Time 7
  8,                                      !- Hour 8
  0,                                      !- Minute 8
  20,                                     !- Value Until Time 8
  9,                                      !- Hour 9
  0,                                      !- Minute 9
  20,                                     !- Value Until Time 9
  10,                                     !- Hour 10
  0,                                      !- Minute 10
  20,                                     !- Value Until Time 10
  11,                                     !- Hour 11
  0,                                      !- Minute 11
  20,                                     !- Value Until Time 11
  12,                                     !- Hour 12
  0,                                      !- Minute 12
  20,                                     !- Value Until Time 12
  13,                                     !- Hour 13
  0,                                      !- Minute 13
  20,                                     !- Value Until Time 13
  14,                                     !- Hour 14
  0,                                      !- Minute 14
  20,                                     !- Value Until Time 14
  15,                                     !- Hour 15
  0,                                      !- Minute 15
  20,                                     !- Value Until Time 15
  16,                                     !- Hour 16
  0,                                      !- Minute 16
  20,                                     !- Value Until Time 16
  17,                                     !- Hour 17
  0,                                      !- Minute 17
  20,                                     !- Value Until Time 17
  18,                                     !- Hour 18
  0,                                      !- Minute 18
  20,                                     !- Value Until Time 18
  19,                                     !- Hour 19
  0,                                      !- Minute 19
  20,                                     !- Value Until Time 19
  20,                                     !- Hour 20
  0,                                      !- Minute 20
  20,                                     !- Value Until Time 20
  21,                                     !- Hour 21
  0,                                      !- Minute 21
  20,                                     !- Value Until Time 21
  22,                                     !- Hour 22
  0,                                      !- Minute 22
  20,                                     !- Value Until Time 22
  23,                                     !- Hour 23
  0,                                      !- Minute 23
  20,                                     !- Value Until Time 23
  24,                                     !- Hour 24
  0,                                      !- Minute 24
  20;                                     !- Value Until Time 24

OS:YearDescription,
  {7efad8f9-05ac-49fe-86fa-fc829fefbc93}; !- Handle

OS:Schedule:Year,
  {63b377be-960b-4389-bfb3-866357e72c69}, !- Handle
  Cooling Setpoints,                      !- Name
  {a4cbb0f5-a36e-4d8a-bb7e-6c9b1032c799}, !- Schedule Type Limits Name
  12,                                     !- Month 1
  31,                                     !- Day 1
  {7ff906d5-d3c8-4423-b74c-734789e87a13}; !- Week Schedule Until Date 1

OS:Schedule:Week,
  {7ff906d5-d3c8-4423-b74c-734789e87a13}, !- Handle
  Zone Cooling Setpoint All Weeks,        !- Name
  ,                                       !- Schedule Rendering Name
  {24a69bb7-89c8-49dd-adff-ee939e2e4d9b}, !- Sunday Schedule:Day Name
  {24a69bb7-89c8-49dd-adff-ee939e2e4d9b}, !- Monday Schedule:Day Name
  {24a69bb7-89c8-49dd-adff-ee939e2e4d9b}, !- Tuesday Schedule:Day Name
  {24a69bb7-89c8-49dd-adff-ee939e2e4d9b}, !- Wednesday Schedule:Day Name
  {24a69bb7-89c8-49dd-adff-ee939e2e4d9b}, !- Thursday Schedule:Day Name
  {24a69bb7-89c8-49dd-adff-ee939e2e4d9b}, !- Friday Schedule:Day Name
  {24a69bb7-89c8-49dd-adff-ee939e2e4d9b}, !- Saturday Schedule:Day Name
  {24a69bb7-89c8-49dd-adff-ee939e2e4d9b}, !- Holiday Schedule:Day Name
  {24a69bb7-89c8-49dd-adff-ee939e2e4d9b}, !- SummerDesignDay Schedule:Day Name
  {24a69bb7-89c8-49dd-adff-ee939e2e4d9b}, !- WinterDesignDay Schedule:Day Name
  {24a69bb7-89c8-49dd-adff-ee939e2e4d9b}, !- CustomDay1 Schedule:Day Name
  {24a69bb7-89c8-49dd-adff-ee939e2e4d9b}; !- CustomDay2 Schedule:Day Name

OS:Schedule:Day,
  {24a69bb7-89c8-49dd-adff-ee939e2e4d9b}, !- Handle
  Zone Cooling Setpoint All Days,         !- Name
  {a4cbb0f5-a36e-4d8a-bb7e-6c9b1032c799}, !- Schedule Type Limits Name
  ,                                       !- Interpolate to Timestep
  1,                                      !- Hour 1
  0,                                      !- Minute 1
  27,                                     !- Value Until Time 1
  2,                                      !- Hour 2
  0,                                      !- Minute 2
  27,                                     !- Value Until Time 2
  3,                                      !- Hour 3
  0,                                      !- Minute 3
  27,                                     !- Value Until Time 3
  4,                                      !- Hour 4
  0,                                      !- Minute 4
  27,                                     !- Value Until Time 4
  5,                                      !- Hour 5
  0,                                      !- Minute 5
  27,                                     !- Value Until Time 5
  6,                                      !- Hour 6
  0,                                      !- Minute 6
  27,                                     !- Value Until Time 6
  7,                                      !- Hour 7
  0,                                      !- Minute 7
  27,                                     !- Value Until Time 7
  8,                                      !- Hour 8
  0,                                      !- Minute 8
  27,                                     !- Value Until Time 8
  9,                                      !- Hour 9
  0,                                      !- Minute 9
  27,                                     !- Value Until Time 9
  10,                                     !- Hour 10
  0,                                      !- Minute 10
  27,                                     !- Value Until Time 10
  11,                                     !- Hour 11
  0,                                      !- Minute 11
  27,                                     !- Value Until Time 11
  12,                                     !- Hour 12
  0,                                      !- Minute 12
  27,                                     !- Value Until Time 12
  13,                                     !- Hour 13
  0,                                      !- Minute 13
  27,                                     !- Value Until Time 13
  14,                                     !- Hour 14
  0,                                      !- Minute 14
  27,                                     !- Value Until Time 14
  15,                                     !- Hour 15
  0,                                      !- Minute 15
  27,                                     !- Value Until Time 15
  16,                                     !- Hour 16
  0,                                      !- Minute 16
  27,                                     !- Value Until Time 16
  17,                                     !- Hour 17
  0,                                      !- Minute 17
  27,                                     !- Value Until Time 17
  18,                                     !- Hour 18
  0,                                      !- Minute 18
  27,                                     !- Value Until Time 18
  19,                                     !- Hour 19
  0,                                      !- Minute 19
  27,                                     !- Value Until Time 19
  20,                                     !- Hour 20
  0,                                      !- Minute 20
  27,                                     !- Value Until Time 20
  21,                                     !- Hour 21
  0,                                      !- Minute 21
  27,                                     !- Value Until Time 21
  22,                                     !- Hour 22
  0,                                      !- Minute 22
  27,                                     !- Value Until Time 22
  23,                                     !- Hour 23
  0,                                      !- Minute 23
  27,                                     !- Value Until Time 23
  24,                                     !- Hour 24
  0,                                      !- Minute 24
  27;                                     !- Value Until Time 24

OS:Output:Variable,
  {5a00a7ae-960c-48b6-93d0-53a2b9f4a261}, !- Handle
  {347cf028-adf2-4ee8-a454-f4ccf10361e8}, !- Name
  *,                                      !- Key Value
  Zone Mean Air Temperature,              !- Variable Name
  Hourly;                                 !- Reporting Frequency

OS:Schedule:Year,
  {c6f7e1aa-ed4f-432d-a89a-fbcea81a66fb}, !- Handle
  Sch 2,                                  !- Name
  {aeffd7bf-b5be-4817-a78b-dd9324b31cad}, !- Schedule Type Limits Name
  12,                                     !- Month 1
  31,                                     !- Day 1
  {08a2bb4c-f857-45b3-9bb8-80000f26a5a9}; !- Week Schedule Until Date 1

OS:ScheduleTypeLimits,
  {aeffd7bf-b5be-4817-a78b-dd9324b31cad}, !- Handle
  Fraction,                               !- Name
  0,                                      !- Lower Limit Value
  1,                                      !- Upper Limit Value
  Continuous;                             !- Numeric Type

OS:Schedule:Week,
  {08a2bb4c-f857-45b3-9bb8-80000f26a5a9}, !- Handle
  Week Sch 2,                             !- Name
  ,                                       !- Schedule Rendering Name
  {a0029a9d-bbff-413c-9cf4-6825d442bc0c}, !- Sunday Schedule:Day Name
  {a0029a9d-bbff-413c-9cf4-6825d442bc0c}, !- Monday Schedule:Day Name
  {a0029a9d-bbff-413c-9cf4-6825d442bc0c}, !- Tuesday Schedule:Day Name
  {a0029a9d-bbff-413c-9cf4-6825d442bc0c}, !- Wednesday Schedule:Day Name
  {a0029a9d-bbff-413c-9cf4-6825d442bc0c}, !- Thursday Schedule:Day Name
  {a0029a9d-bbff-413c-9cf4-6825d442bc0c}, !- Friday Schedule:Day Name
  {a0029a9d-bbff-413c-9cf4-6825d442bc0c}, !- Saturday Schedule:Day Name
  {a0029a9d-bbff-413c-9cf4-6825d442bc0c}, !- Holiday Schedule:Day Name
  {a0029a9d-bbff-413c-9cf4-6825d442bc0c}, !- SummerDesignDay Schedule:Day Name
  {a0029a9d-bbff-413c-9cf4-6825d442bc0c}, !- WinterDesignDay Schedule:Day Name
  {a0029a9d-bbff-413c-9cf4-6825d442bc0c}, !- CustomDay1 Schedule:Day Name
  {a0029a9d-bbff-413c-9cf4-6825d442bc0c}; !- CustomDay2 Schedule:Day Name

OS:Schedule:Day,
  {a0029a9d-bbff-413c-9cf4-6825d442bc0c}, !- Handle
  Day Sch 2,                              !- Name
  {aeffd7bf-b5be-4817-a78b-dd9324b31cad}, !- Schedule Type Limits Name
  ,                                       !- Interpolate to Timestep
  1,                                      !- Hour 1
  0,                                      !- Minute 1
  0,                                      !- Value Until Time 1
  2,                                      !- Hour 2
  0,                                      !- Minute 2
  0,                                      !- Value Until Time 2
  3,                                      !- Hour 3
  0,                                      !- Minute 3
  0,                                      !- Value Until Time 3
  4,                                      !- Hour 4
  0,                                      !- Minute 4
  0,                                      !- Value Until Time 4
  5,                                      !- Hour 5
  0,                                      !- Minute 5
  0,                                      !- Value Until Time 5
  6,                                      !- Hour 6
  0,                                      !- Minute 6
  0,                                      !- Value Until Time 6
  7,                                      !- Hour 7
  0,                                      !- Minute 7
  0,                                      !- Value Until Time 7
  8,                                      !- Hour 8
  0,                                      !- Minute 8
  0,                                      !- Value Until Time 8
  9,                                      !- Hour 9
  0,                                      !- Minute 9
  0,                                      !- Value Until Time 9
  10,                                     !- Hour 10
  0,                                      !- Minute 10
  0,                                      !- Value Until Time 10
  11,                                     !- Hour 11
  0,                                      !- Minute 11
  0,                                      !- Value Until Time 11
  12,                                     !- Hour 12
  0,                                      !- Minute 12
  0,                                      !- Value Until Time 12
  13,                                     !- Hour 13
  0,                                      !- Minute 13
  0,                                      !- Value Until Time 13
  14,                                     !- Hour 14
  0,                                      !- Minute 14
  0,                                      !- Value Until Time 14
  15,                                     !- Hour 15
  0,                                      !- Minute 15
  0,                                      !- Value Until Time 15
  16,                                     !- Hour 16
  0,                                      !- Minute 16
  0,                                      !- Value Until Time 16
  17,                                     !- Hour 17
  0,                                      !- Minute 17
  0,                                      !- Value Until Time 17
  18,                                     !- Hour 18
  0,                                      !- Minute 18
  0,                                      !- Value Until Time 18
  19,                                     !- Hour 19
  0,                                      !- Minute 19
  0,                                      !- Value Until Time 19
  20,                                     !- Hour 20
  0,                                      !- Minute 20
  0,                                      !- Value Until Time 20
  21,                                     !- Hour 21
  0,                                      !- Minute 21
  0,                                      !- Value Until Time 21
  22,                                     !- Hour 22
  0,                                      !- Minute 22
  0,                                      !- Value Until Time 22
  23,                                     !- Hour 23
  0,                                      !- Minute 23
  0,                                      !- Value Until Time 23
  24,                                     !- Hour 24
  0,                                      !- Minute 24
  0;                                      !- Value Until Time 24

OS:ShadingSurface,
  {41e9e6dc-f6c0-48e3-8caf-3a85c5058123}, !- Handle
  WEST WINDOW RIGHT FIN,                  !- Name
  ,                                       !- Construction Name
  {0680d47d-c4bb-4cfa-9cf1-309083de8659}, !- Shading Surface Group Name
  {c6f7e1aa-ed4f-432d-a89a-fbcea81a66fb}, !- Transmittance Schedule Name
  ,                                       !- Number of Vertices
  0, 1.5, 2.7,                            !- X,Y,Z Vertex 1 {m}
  0, 1.5, 0,                              !- X,Y,Z Vertex 2 {m}
  -1, 1.5, 0,                             !- X,Y,Z Vertex 3 {m}
  -1, 1.5, 2.7;                           !- X,Y,Z Vertex 4 {m}

OS:Surface,
  {008b81fa-38a9-4f2e-995c-989632d31a03}, !- Handle
  ZONE SURFACE WEST,                      !- Name
  Wall,                                   !- Surface Type
  {2b49d6f7-51c4-4fef-b0b8-8b7f53774441}, !- Construction Name
  {283d80d0-75bd-4728-b8d3-36d580f7c924}, !- Space Name
  Outdoors,                               !- Outside Boundary Condition
  ,                                       !- Outside Boundary Condition Object
  SunExposed,                             !- Sun Exposure
  WindExposed,                            !- Wind Exposure
  0.5,                                    !- View Factor to Ground
  ,                                       !- Number of Vertices
  0, 6, 2.7,                              !- X,Y,Z Vertex 1 {m}
  0, 6, 0,                                !- X,Y,Z Vertex 2 {m}