
OS:Version,
  {b5175e3a-0a6c-4296-adf2-c94664158844}, !- Handle
  1.11.5;                                 !- Version Identifier

OS:Site,
  {7c03233c-c41c-4933-bbc0-79406ddbd9bc}, !- Handle
  GOLDEN COLORADO,                        !- Name
  39.8,                                   !- Latitude {deg}
  -104.9,                                 !- Longitude {deg}
  -7,                                     !- Time Zone {hr}
  1609,                                   !- Elevation {m}
  Country;                                !- Terrain

OS:Output:Variable,
  {0ad36664-9546-4a0b-9c2f-ef5e4e2b4034}, !- Handle
  {710a873c-ee2f-4a18-9f82-ad3a77dd138d}, !- Name
  *,                                      !- Key Value
  Surface Window Transmitted Diffuse Solar Radiation Rate, !- Variable Name
  Hourly;                                 !- Reporting Frequency

OS:Output:Variable,
  {bbf63ca7-755f-4d64-9555-d8f56cfc1014}, !- Handle
  {f7a8cd46-bde5-4be9-8c8b-247806868ec1}, !- Name
  *,                                      !- Key Value
  Surface Window Transmitted Beam Solar Radiation Energy, !- Variable Name
  Hourly;                                 !- Reporting Frequency

OS:Material,
  {4829beba-4506-444b-828d-a43519bb9619}, !- Handle
  FIBERGLASS QUILT-2,                     !- Name
  Rough,                                  !- Roughness
  0.1118,                                 !- Thickness {m}
  0.04,                                   !- Conductivity {W/m-K}
  12,                                     !- Density {kg/m3}
  840,                                    !- Specific Heat {J/kg-K}
  0.9,                                    !- Thermal Absorptance
  0.6,                                    !- Solar Absorptance
  0.6;                                    !- Visible Absorptance

OS:Schedule:Day,
  {b21f79eb-d78d-4d61-ae69-e8c37391aac3}, !- Handle
  Zone Cooling Setpoint All Days,         !- Name
  {f0a18070-6b2c-40af-9599-24adb98fc5f7}, !- Schedule Type Limits Name
  ,                                       !- Interpolate to Timestep
  1,                                      !- Hour 1
  0,                                      !- Minute 1
  27,                                     !- Value Until Time 1
  2,                                      !- Hour 2
  0,                                      !- Minute 2
  27,                                     !- Value Until Time 2
  3,                                      !- Hour 3
  0,                                      !- Minute 3
  27,                                     !- Value Until Time 3
  4,                                      !- Hour 4
  0,                                      !- Minute 4
  27,                                     !- Value Until Time 4
  5,                                      !- Hour 5
  0,                                      !- Minute 5
  27,                                     !- Value Until Time 5
  6,                                      !- Hour 6
  0,                                      !- Minute 6
  27,                                     !- Value Until Time 6
  7,                                      !- Hour 7
  0,                                      !- Minute 7
  27,                                     !- Value Until Time 7
  8,                                      !- Hour 8
  0,                                      !- Minute 8
  27,                                     !- Value Until Time 8
  9,                                      !- Hour 9
  0,                                      !- Minute 9
  27,                                     !- Value Until Time 9
  10,                                     !- Hour 10
  0,                                      !- Minute 10
  27,                                     !- Value Until Time 10
  11,                                     !- Hour 11
  0,                                      !- Minute 11
  27,                                     !- Value Until Time 11
  12,                                     !- Hour 12
  0,                                      !- Minute 12
  27,                                     !- Value Until Time 12
  13,                                     !- Hour 13
  0,                                      !- Minute 13
  27,                                     !- Value Until Time 13
  14,                                     !- Hour 14
  0,                                      !- Minute 14
  27,                                     !- Value Until Time 14
  15,                                     !- Hour 15
  0,                                      !- Minute 15
  27,                                     !- Value Until Time 15
  16,                                     !- Hour 16
  0,                                      !- Minute 16
  27,                                     !- Value Until Time 16
  17,                                     !- Hour 17
  0,                                      !- Minute 17
  27,                                     !- Value Until Time 17
  18,                                     !- Hour 18
  0,                                      !- Minute 18
  27,                                     !- Value Until Time 18
  19,                                     !- Hour 19
  0,                                      !- Minute 19
  27,                                     !- Value Until Time 19
  20,                                     !- Hour 20
  0,                                      !- Minute 20
  27,                                     !- Value Until Time 20
  21,                                     !- Hour 21
  0,                                      !- Minute 21
  27,                                     !- Value Until Time 21
  22,                                     !- Hour 22
  0,                                      !- Minute 22
  27,                                     !- Value Until Time 22
  23,                                     !- Hour 23
  0,                                      !- Minute 23
  27,                                     !- Value Until Time 23
  24,                                     !- Hour 24
  0,                                      !- Minute 24
  27;                                     !- Value Until Time 24

OS:ScheduleTypeLimits,
  {f0a18070-6b2c-40af-9599-24adb98fc5f7}, !- Handle
  Temperature,                            !- Name
  -60,                                    !- Lower Limit Value
  200,                                    !- Upper Limit Value
  Continuous,                             !- Numeric Type
  Temperature;                            !- Unit Type

OS:Schedule:Day,
  {6d79f622-ef3d-4778-8281-b6110e83f3ed}, !- Handle
  Day Sch 1,                              !- Name
  {c0c28c06-e587-40a5-8137-858f18ea5204}, !- Schedule Type Limits Name
  ,                                       !- Interpolate to Timestep
  1,                                      !- Hour 1
  0,                                      !- Minute 1
  1,                                      !- Value Until Time 1
  2,                                      !- Hour 2
  0,                                      !- Minute 2
  1,                                      !- Value Until Time 2
  3,                                      !- Hour 3
  0,                                      !- Minute 3
  1,                                      !- Value Until Time 3
  4,                                      !- Hour 4
  0,                                      !- Minute 4
  1,                                      !- Value Until Time 4
  5,                                      !- Hour 5
  0,                                      !- Minute 5
  1,                                      !- Value Until Time 5
  6,                                      !- Hour 6
  0,                                      !- Minute 6
  1,                                      !- Value Until Time 6
  7,                                      !- Hour 7
  0,                                      !- Minute 7
  1,                                      !- Value Until Time 7
  8,                                      !- Hour 8
  0,                                      !- Minute 8
  1,                                      !- Value Until Time 8
  9,                                      !- Hour 9
  0,                                      !- Minute 9
  1,                                      !- Value Until Time 9
  10,                                     !- Hour 10
  0,                                      !- Minute 10
  1,                                      !- Value Until Time 10
  11,                                     !- Hour 11
  0,                                      !- Minute 11
  1,                                      !- Value Until Time 11
  12,                                     !- Hour 12
  0,                                      !- Minute 12
  1,                                      !- Value Until Time 12
  13,                                     !- Hour 13
  0,                                      !- Minute 13
  1,                                      !- Value Until Time 13
  14,                                     !- Hour 14
  0,                                      !- Minute 14
  1,                                      !- Value Until Time 14
  15,                                     !- Hour 15
  0,                                      !- Minute 15
  1,                                      !- Value Until Time 15
  16,                                     !- Hour 16
  0,                                      !- Minute 16
  1,                                      !- Value Until Time 16
  17,                                     !- Hour 17
  0,                                      !- Minute 17
  1,                                      !- Value Until Time 17
  18,                                     !- Hour 18
  0,                                      !- Minute 18
  1,                                      !- Value Until Time 18
  19,                                     !- Hour 19
  0,                                      !- Minute 19
  1,                                      !- Value Until Time 19
  20,                                     !- Hour 20
  0,                                      !- Minute 20
  1,                                      !- Value Until Time 20
  21,                                     !- Hour 21
  0,                                      !- Minute 21
  1,                                      !- Value Until Time 21
  22,                                     !- Hour 22
  0,                                      !- Minute 22
  1,                                      !- Value Until Time 22
  23,                                     !- Hour 23
  0,                                      !- Minute 23
  1,                                      !- Value Until Time 23
  24,                                     !- Hour 24
  0,                                      !- Minute 24
  1;                                      !- Value Until Time 24

OS:ScheduleTypeLimits,
  {c0c28c06-e587-40a5-8137-858f18ea5204}, !- Handle
  Fraction,                               !- Name
  0,                                      !- Lower Limit Value
  1,                                      !- Upper Limit Value
  Continuous;                             !- Numeric Type

OS:Output:Variable,
  {8c54d489-7b40-429d-87c4-8b7909b7b5c6}, !- Handle
  {a103b0d0-2545-4696-8d04-59142ad0952d}, !- Name
  *,                                      !- Key Value
  Surface Outside Face Incident Solar Radiation Rate per Area, !- Variable Name
  Hourly;                                 !- Reporting Frequency

OS:Material,
  {6720a913-5a82-40a4-9b2c-b5fb19300768}, !- Handle
  CONCRETE SLAB,                          !- Name
  Rough,                                  !- Roughness
  0.08,                                   !- Thickness {m}
  1.13,                                   !- Conductivity {W/m-K}
  1400,                                   !- Density {kg/m3}
  1000,                                   !- Specific Heat {J/kg-K}
  0.9,                                    !- Thermal Absorptance
  0.6,                                    !- Solar Absorptance
  0.6;                                    !- Visible Absorptance

OS:Schedule:Day,
  {5033d79c-f0bc-4948-b896-f97bc0dac3b8}, !- Handle
  Day Sch 2,                              !- Name
  {c0c28c06-e587-40a5-8137-858f18ea5204}, !- Schedule Type Limits Name
  ,                                       !- Interpolate to Timestep
  1,                                      !- Hour 1
  0,                                      !- Minute 1
  0,                                      !- Value Until Time 1
  2,                                      !- Hour 2
  0,                                      !- Minute 2
  0,                                      !- Value Until Time 2
  3,                                      !- Hour 3
  0,                                      !- Minute 3
  0,                                      !- Value Until Time 3
  4,                                      !- Hour 4
  0,                                      !- Minute 4
  0,                                      !- Value Until Time 4
  5,                                      !- Hour 5
  0,                                      !- Minute 5
  0,                                      !- Value Until Time 5
  6,                                      !- Hour 6
  0,                                      !- Minute 6
  0,                                      !- Value Until Time 6
  7,                                      !- Hour 7
  0,                                      !- Minute 7
  0,                                      !- Value Until Time 7
  8,                                      !- Hour 8
  0,                                      !- Minute 8
  0,                                      !- Value Until Time 8
  9,                                      !- Hour 9
  0,                                      !- Minute 9
  0,                                      !- Value Until Time 9
  10,                                     !- Hour 10
  0,                                      !- Minute 10
  0,                                      !- Value Until Time 10
  11,                                     !- Hour 11
  0,                                      !- Minute 11
  0,                                      !- Value Until Time 11
  12,                                     !- Hour 12
  0,                                      !- Minute 12
  0,                                      !- Value Until Time 12
  13,                                     !- Hour 13
  0,                                      !- Minute 13
  0,                                      !- Value Until Time 13
  14,                                     !- Hour 14
  0,                                      !- Minute 14
  0,                                      !- Value Until Time 14
  15,                                     !- Hour 15
  0,                                      !- Minute 15
  0,                                      !- Value Until Time 15
  16,                                     !- Hour 16
  0,                                      !- Minute 16
  0,                                      !- Value Until Time 16
  17,                                     !- Hour 17
  0,                                      !- Minute 17
  0,                                      !- Value Until Time 17
  18,                                     !- Hour 18
  0,                                      !- Minute 18
  0,                                      !- Value Until Time 18
  19,                                     !- Hour 19
  0,                                      !- Minute 19
  0,                                      !- Value Until Time 19
  20,                                     !- Hour 20
  0,                                      !- Minute 20
  0,                                      !- Value Until Time 20
  21,                                     !- Hour 21
  0,                                      !- Minute 21
  0,                                      !- Value Until Time 21
  22,                                     !- Hour 22
  0,                                      !- Minute 22
  0,                                      !- Value Until Time 22
  23,                                     !- Hour 23
  0,                                      !- Minute 23
  0,                                      !- Value Until Time 23
  24,                                     !- Hour 24
  0,                                      !- Minute 24
  0;                                      !- Value Until Time 24

OS:Output:Variable,
  {ff58059c-5654-481d-a26d-03d10893e761}, !- Handle
  {2ec36879-1457-49c1-93a9-a8da651226e7}, !- Name
  *,                                      !- Key Value
  Surface Window Transmitted Diffuse Solar Radiation Energy, !- Variable Name
  Hourly;                                 !- Reporting Frequency

OS:Schedule:Day,
  {20372ecd-894c-4c68-98fa-e94fec464dfc}, !- Handle
  Control Type All Days,                  !- Name
  {4bcf420e-ab4b-4378-9d79-86d02c7325a1}, !- Schedule Type Limits Name
  ,                                       !- Interpolate to Timestep
  1,                                      !- Hour 1
  0,                                      !- Minute 1
  4,                                      !- Value Until Time 1
  2,                                      !- Hour 2
  0,                                      !- Minute 2
  4,                                      !- Value Until Time 2
  3,                                      !- Hour 3
  0,                                      !- Minute 3
  4,                                      !- Value Until Time 3
  4,                                      !- Hour 4
  0,                                      !- Minute 4
  4,                                      !- Value Until Time 4
  5,                                      !- Hour 5
  0,                                      !- Minute 5
  4,                                      !- Value Until Time 5
  6,                                      !- Hour 6
  0,                                      !- Minute 6
  4,                                      !- Value Until Time 6
  7,                                      !- Hour 7
  0,                                      !- Minute 7
  4,                                      !- Value Until Time 7
  8,                                      !- Hour 8
  0,                                      !- Minute 8
  4,                                      !- Value Until Time 8
  9,                                      !- Hour 9
  0,                                      !- Minute 9
  4,                                      !- Value Until Time 9
  10,                                     !- Hour 10
  0,                                      !- Minute 10
  4,                                      !- Value Until Time 10
  11,                                     !- Hour 11
  0,                                      !- Minute 11
  4,                                      !- Value Until Time 11
  12,                                     !- Hour 12
  0,                                      !- Minute 12
  4,                                      !- Value Until Time 12
  13,                                     !- Hour 13
  0,                                      !- Minute 13
  4,                                      !- Value Until Time 13
  14,                                     !- Hour 14
  0,                                      !- Minute 14
  4,                                      !- Value Until Time 14
  15,                                     !- Hour 15
  0,                                      !- Minute 15
  4,                                      !- Value Until Time 15
  16,                                     !- Hour 16
  0,                                      !- Minute 16
  4,                                      !- Value Until Time 16
  17,                                     !- Hour 17
  0,                                      !- Minute 17
  4,                                      !- Value Until Time 17
  18,                                     !- Hour 18
  0,                                      !- Minute 18
  4,                                      !- Value Until Time 18
  19,                                     !- Hour 19
  0,                                      !- Minute 19
  4,                                      !- Value Until Time 19
  20,                                     !- Hour 20
  0,                                      !- Minute 20
  4,                                      !- Value Until Time 20
  21,                                     !- Hour 21
  0,                                      !- Minute 21
  4,                                      !- Value Until Time 21
  22,                                     !- Hour 22
  0,                                      !- Minute 22
  4,                                      !- Value Until Time 22
  23,                                     !- Hour 23
  0,                                      !- Minute 23
  4,                                      !- Value Until Time 23
  24,                                     !- Hour 24
  0,                                      !- Minute 24
  4;                                      !- Value Until Time 24

OS:ScheduleTypeLimits,
  {4bcf420e-ab4b-4378-9d79-86d02c7325a1}, !- Handle
  Control Type,                           !- Name
  0,                                      !- Lower Limit Value
  4,                                      !- Upper Limit Value
  Discrete,                               !- Numeric Type
  ControlMode;                            !- Unit Type

OS:Construction,
  {824a8f7a-6e30-41c7-af26-7000d1e4b19c}, !- Handle
  HWFLOOR,                                !- Name
  {0026aae8-f0cf-4c24-9db0-32ee4b8a898a}, !- Surface Rendering Name
  {34e94c48-1816-4f8e-bebf-6f6cdf0165f0}, !- Layer 1
  {6720a913-5a82-40a4-9b2c-b5fb19300768}; !- Layer 2

OS:Material:NoMass,
  {34e94c48-1816-4f8e-bebf-6f6cdf0165f0}, !- Handle
  R-25 INSULATION,                        !- Name
  Rough,                                  !- Roughness
  25.175,                                 !- Thermal Resistance {m2-K/W}
  0.9,                                    !- Thermal Absorptance
  0.6,                                    !- Solar Absorptance
  0.6;                                    !- Visible Absorptance

OS:ShadingSurface,
  {3cf8f4fd-ea4d-4dd6-beb3-fad7be9d0668}, !- Handle
  SOUTH WALL OVERHANG,                    !- Name
  ,                                       !- Construction Name
  {cd8e30bc-be3a-4787-80fc-feace389409f}, !- Shading Surface Group Name
  {1ef37488-715d-4aa3-a998-f50e1c7f1b7a}, !- Transmittance Schedule Name
  ,                                       !- Number of Vertices
  8, 0, 2.7,                              !- X,Y,Z Vertex 1 {m}
  8, -1, 2.7,                             !- X,Y,Z Vertex 2 {m}
  0, -1, 2.7,                             !- X,Y,Z Vertex 3 {m}
  0, 0, 2.7;                              !- X,Y,Z Vertex 4 {m}

OS:Surface,
  {fd1d622b-5e4c-42c6-aaaf-74a8a950a32d}, !- Handle
  ZONE SURFACE SOUTH,                     !- Name
  Wall,                                   !- Surface Type
  {ddc3eaa5-78bf-4989-bebf-b920197b53f0}, !- Construction Name
  {ea4ce6f3-1fdb-4aff-b5e3-ca50f4f05342}, !- Space Name
  Outdoors,                               !- Outside Boundary Condition
  ,                                       !- Outside Boundary Condition Object
  SunExposed,                             !- Sun Exposure
  WindExposed,                            !- Wind Exposure
  0.5,                                    !- View Factor to Ground
  ,                                       !- Number of Vertices
  0, 0, 2.7,                              !- X,Y,Z Vertex 1 {m}
  0, 0, 0,                                !- X,Y,Z Vertex 2 {m}
  8, 0, 0,                                !- X,Y,Z Vertex 3 {m}
  8, 0, 2.7;                              !- X,Y,Z Vertex 4 {m}

OS:Construction,
  {ddc3eaa5-78bf-4989-bebf-b920197b53f0}, !- Handle
  HWWALL,                                 !- Name
  {3eac11e9-62da-4a10-9146-f14c01e781b3}, !- Surface Rendering Name
  {bbb8e510-4bf5-487c-aaac-99a167a0b6f7}, !- Layer 1
  {a84ee24e-8ce0-4ace-8cdb-aeaed7acae04}, !- Layer 2
  {d2c8515f-c414-49ba-bd36-e62cf9e0fb4b}; !- Layer 3

OS:Material,
  {bbb8e510-4bf5-487c-aaac-99a167a0b6f7}, !- Handle
  WOOD SIDING-1,                          !- Name
  Rough,                                  !- Roughness
  0.009,                                  !- Thickness {m}
  0.14,                                   !- Conductivity {W/m-K}
  530,                                    !- Density {kg/m3}
  900,                                    !- Specific Heat {J/kg-K}
  0.9,                                    !- Thermal Absorptance
  0.6,                                    !- Solar Absorptance
  0.6;                                    !- Visible Absorptance

OS:Material,
  {a84ee24e-8ce0-4ace-8cdb-aeaed7acae04}, !- Handle
  FOAM INSULATION,                        !- Name
  Rough,                                  !- Roughness
  0.0615,                                 !- Thickness {m}
  0.04,                                   !- Conductivity {W/m-K}
  10,                                     !- Density {kg/m3}
  1400,                                   !- Specific Heat {J/kg-K}
  0.9,                                    !- Thermal Absorptance
  0.6,                                    !- Solar Absorptance
  0.6;                                    !- Visible Absorptance

OS:Material,
  {d2c8515f-c414-49ba-bd36-e62cf9e0fb4b}, !- Handle
  CONCRETE BLOCK,                         !- Name
  Rough,                                  !- Roughness
  0.1,                                    !- Thickness {m}
  0.51,                                   !- Conductivity {W/m-K}
  1400,                                   !- Density {kg/m3}
  1000,                                   !- Specific Heat {J/kg-K}
  0.9,                                    !- Thermal Absorptance
  0.6,                                    !- Solar Absorptance
  0.6;                                    !- Visible Absorptance

OS:ThermalZone,
  {2ecb2bf7-6cfe-447d-9860-a817b34ce632}, !- Handle
  ZONE ONE Thermal Zone,                  !- Name
  1,                                      !- Multiplier
  2.7,                                    !- Ceiling Height {m}
  129.6,                                  !- Volume {m3}
  ,                                       !- Floor Area {m2}
  ,                                       !- Zone Inside Convection Algorithm
  ,                                       !- Zone Outside Convection Algorithm
  ,                                       !- Zone Conditioning Equipment List Name
  {e18cbe83-dce0-4450-a4be-4e2a4eb5960f}, !- Zone Air Inlet Port List
  {59e0998c-bfad-4ffa-b70e-91f9412b9c0d}, !- Zone Air Exhaust Port List
  {da816a64-c5db-440b-983e-1fa7da548a8d}, !- Zone Air Node Name
  ,                                       !- Zone Return Air Node Name
  ,                                       !- Primary Daylighting Control Name
  ,                                       !- Fraction of Zone Controlled by Primary Daylighting Control
  ,                                       !- Secondary Daylighting Control Name
  ,                                       !- Fraction of Zone Controlled by Secondary Daylighting Control
  ,                                       !- Illuminance Map Name
  {27c56d52-2018-4e96-bdf7-f5d9c17cba63}, !- Group Rendering Name
  {b843343f-b45a-4aff-817a-14bee86576b2}, !- Thermostat Name
  No;                                     !- Use Ideal Air Loads

OS:Node,
  {7c75c075-2954-43da-82f1-59d2a13a9922}, !- Handle
  {290d57ef-e9f5-4233-b814-4dd37db632c3}, !- Name
  {da816a64-c5db-440b-983e-1fa7da548a8d}, !- Inlet Port
  ;                                       !- Outlet Port

OS:Connection,
  {da816a64-c5db-440b-983e-1fa7da548a8d}, !- Handle
  {9bc2ed4d-1707-47d2-92ea-dfbc43d16fe0}, !- Name
  {2ecb2bf7-6cfe-447d-9860-a817b34ce632}, !- Source Object
  11,                                     !- Outlet Port
  {7c75c075-2954-43da-82f1-59d2a13a9922}, !- Target Object
  2;                                      !- Inlet Port

OS:PortList,
  {e18cbe83-dce0-4450-a4be-4e2a4eb5960f}, !- Handle
  {b8efcc5a-8f6f-45f9-bc0f-0764af4b50d0}, !- Name
  {2ecb2bf7-6cfe-447d-9860-a817b34ce632}; !- HVAC Component

OS:PortList,
  {59e0998c-bfad-4ffa-b70e-91f9412b9c0d}, !- Handle
  {d2ca07ae-e710-4ced-94b9-67e40906b327}, !- Name
  {2ecb2bf7-6cfe-447d-9860-a817b34ce632}; !- HVAC Component

OS:Sizing:Zone,
  {6547f29b-1eb8-4009-8754-39b2b1e1afaa}, !- Handle
  {2ecb2bf7-6cfe-447d-9860-a817b34ce632}, !- Zone or ZoneList Name
  SupplyAirTemperature,                   !- Zone Cooling Design Supply Air Temperature Input Method
  14,                                     !- Zone Cooling Design Supply Air Temperature {C}
  11.11,                                  !- Zone Cooling Design Supply Air Temperature Difference {deltaC}
  SupplyAirTemperature,                   !- Zone Heating Design Supply Air Temperature Input Method
  40,                                     !- Zone Heating Design Supply Air Temperature {C}
  11.11,                                  !- Zone Heating Design Supply Air Temperature Difference {deltaC}
  0.0085,                                 !- Zone Cooling Design Supply Air Humidity Ratio {kg-H2O/kg-air}
  0.008,                                  !- Zone Heating Design Supply Air Humidity Ratio {kg-H2O/kg-air}
  ,                                       !- Zone Heating Sizing Factor
  ,                                       !- Zone Cooling Sizing Factor
  DesignDay,                              !- Cooling Design Air Flow Method
  ,                                       !- Cooling Design Air Flow Rate {m3/s}
  ,                                       !- Cooling Minimum Air Flow per Zone Floor Area {m3/s-m2}