
OS:Version,
  {e61e9e90-edd1-48fb-af3e-e642d5c660ab}, !- Handle
  1.11.5;                                 !- Version Identifier

OS:Site,
  {d898de2d-7548-4385-9f02-be98701814ed}, !- Handle
  GOLDEN COLORADO,                        !- Name
  39.8,                                   !- Latitude {deg}
  -104.9,                                 !- Longitude {deg}
  -7,                                     !- Time Zone {hr}
  1609,                                   !- Elevation {m}
  Country;                                !- Terrain

OS:Schedule:Week,
  {8dd491bc-3784-43f4-811c-19fa8855457b}, !- Handle
  Control Type All Weeks,                 !- Name
  ,                                       !- Schedule Rendering Name
  {73e0e0e8-b5f4-444b-a7cf-9adffe7ca762}, !- Sunday Schedule:Day Name
  {73e0e0e8-b5f4-444b-a7cf-9adffe7ca762}, !- Monday Schedule:Day Name
  {73e0e0e8-b5f4-444b-a7cf-9adffe7ca762}, !- Tuesday Schedule:Day Name
  {73e0e0e8-b5f4-444b-a7cf-9adffe7ca762}, !- Wednesday Schedule:Day Name
  {73e0e0e8-b5f4-444b-a7cf-9adffe7ca762}, !- Thursday Schedule:Day Name
  {73e0e0e8-b5f4-444b-a7cf-9adffe7ca762}, !- Friday Schedule:Day Name
  {73e0e0e8-b5f4-444b-a7cf-9adffe7ca762}, !- Saturday Schedule:Day Name
  {73e0e0e8-b5f4-444b-a7cf-9adffe7ca762}, !- Holiday Schedule:Day Name
  {73e0e0e8-b5f4-444b-a7cf-9adffe7ca762}, !- SummerDesignDay Schedule:Day Name
  {73e0e0e8-b5f4-444b-a7cf-9adffe7ca762}, !- WinterDesignDay Schedule:Day Name
  {73e0e0e8-b5f4-444b-a7cf-9adffe7ca762}, !- CustomDay1 Schedule:Day Name
  {73e0e0e8-b5f4-444b-a7cf-9adffe7ca762}; !- CustomDay2 Schedule:Day Name

OS:Schedule:Day,
  {73e0e0e8-b5f4-444b-a7cf-9adffe7ca762}, !- Handle
  Control Type All Days,                  !- Name
  {e71f4017-3794-4e24-8c41-f04a814ab13d}, !- Schedule Type Limits Name
  ,                                       !- Interpolate to Timestep
  1,                                      !- Hour 1
  0,                                      !- Minute 1
  4,                                      !- Value Until Time 1
  2,                                      !- Hour 2
  0,                                      !- Minute 2
  4,                                      !- Value Until Time 2
  3,                                      !- Hour 3
  0,                                      !- Minute 3
  4,                                      !- Value Until Time 3
  4,                                      !- Hour 4
  0,                                      !- Minute 4
  4,                                      !- Value Until Time 4
  5,                                      !- Hour 5
  0,                                      !- Minute 5
  4,                                      !- Value Until Time 5
  6,                                      !- Hour 6
  0,                                      !- Minute 6
  4,                                      !- Value Until Time 6
  7,                                      !- Hour 7
  0,                                      !- Minute 7
  4,                                      !- Value Until Time 7
  8,                                      !- Hour 8
  0,                                      !- Minute 8
  4,                                      !- Value Until Time 8
  9,                                      !- Hour 9
  0,                                      !- Minute 9
  4,                                      !- Value Until Time 9
  10,                                     !- Hour 10
  0,                                      !- Minute 10
  4,                                      !- Value Until Time 10
  11,                                     !- Hour 11
  0,                                      !- Minute 11
  4,                                      !- Value Until Time 11
  12,                                     !- Hour 12
  0,                                      !- Minute 12
  4,                                      !- Value Until Time 12
  13,                                     !- Hour 13
  0,                                      !- Minute 13
  4,                                      !- Value Until Time 13
  14,                                     !- Hour 14
  0,                                      !- Minute 14
  4,                                      !- Value Until Time 14
  15,                                     !- Hour 15
  0,                                      !- Minute 15
  4,                                      !- Value Until Time 15
  16,                                     !- Hour 16
  0,                                      !- Minute 16
  4,                                      !- Value Until Time 16
  17,                                     !- Hour 17
  0,                                      !- Minute 17
  4,                                      !- Value Until Time 17
  18,                                     !- Hour 18
  0,                                      !- Minute 18
  4,                                      !- Value Until Time 18
  19,                                     !- Hour 19
  0,                                      !- Minute 19
  4,                                      !- Value Until Time 19
  20,                                     !- Hour 20
  0,                                      !- Minute 20
  4,                                      !- Value Until Time 20
  21,                                     !- Hour 21
  0,                                      !- Minute 21
  4,                                      !- Value Until Time 21
  22,                                     !- Hour 22
  0,                                      !- Minute 22
  4,                                      !- Value Until Time 22
  23,                                     !- Hour 23
  0,                                      !- Minute 23
  4,                                      !- Value Until Time 23
  24,                                     !- Hour 24
  0,                                      !- Minute 24
  4;                                      !- Value Until Time 24

OS:ScheduleTypeLimits,
  {e71f4017-3794-4e24-8c41-f04a814ab13d}, !- Handle
  Control Type,                           !- Name
  0,                                      !- Lower Limit Value
  4,                                      !- Upper Limit Value
  Discrete,                               !- Numeric Type
  ControlMode;                            !- Unit Type

OS:WindowMaterial:Glazing,
  {fa0d6fe5-3ae6-47a4-9d57-723d6ce3c111}, !- Handle
  Glass Type 1,                           !- Name
  SpectralAverage,                        !- Optical Data Type
  ,                                       !- Window Glass Spectral Data Set Name
  0.003175,                               !- Thickness {m}
  0.86156,                                !- Solar Transmittance at Normal Incidence
  0.07846,                                !- Front Side Solar Reflectance at Normal Incidence
  0.07846,                                !- Back Side Solar Reflectance at Normal Incidence
  0.91325,                                !- Visible Transmittance at Normal Incidence
  0.082,                                  !- Front Side Visible Reflectance at Normal Incidence
  0.082,                                  !- Back Side Visible Reflectance at Normal Incidence
  0,                                      !- Infrared Transmittance at Normal Incidence
  0.84,                                   !- Front Side Infrared Hemispherical Emissivity
  0.84,                                   !- Back Side Infrared Hemispherical Emissivity
  1.06;                                   !- Conductivity {W/m-K}

OS:SubSurface,
  {50f0364c-62d7-4699-9e88-b013c3dea1cb}, !- Handle
  ZONE SUBSURFACE 1 EAST WINDOW,          !- Name
  FixedWindow,                            !- Sub Surface Type
  {3ba354c6-fe4e-491f-bec3-aae70192c677}, !- Construction Name
  {be8ead13-aa72-4cd2-be6c-d1f9a634b656}, !- Surface Name
  ,                                       !- Outside Boundary Condition Object
  0.5,                                    !- View Factor to Ground
  ,                                       !- Shading Control Name
  ,                                       !- Frame and Divider Name
  1,                                      !- Multiplier
  ,                                       !- Number of Vertices
  8, 1.5, 2.2,                            !- X,Y,Z Vertex 1 {m}
  8, 1.5, 0.2,                            !- X,Y,Z Vertex 2 {m}
  8, 4.5, 0.2,                            !- X,Y,Z Vertex 3 {m}
  8, 4.5, 2.2;                            !- X,Y,Z Vertex 4 {m}

OS:Construction,
  {3ba354c6-fe4e-491f-bec3-aae70192c677}, !- Handle
  Double Pane Window,                     !- Name
  {3c162cf4-7e39-480f-b69d-88f80aac0118}, !- Surface Rendering Name
  {fa0d6fe5-3ae6-47a4-9d57-723d6ce3c111}, !- Layer 1
  {cf287ef1-40dd-4a60-a4d7-63cacc1727c7}, !- Layer 2
  {fa0d6fe5-3ae6-47a4-9d57-723d6ce3c111}; !- Layer 3

OS:WindowMaterial:Gas,
  {cf287ef1-40dd-4a60-a4d7-63cacc1727c7}, !- Handle
  Air Space Resistance,                   !- Name
  AIR,                                    !- Gas Type
  0.013;                                  !- Thickness {m}

OS:Surface,
  {be8ead13-aa72-4cd2-be6c-d1f9a634b656}, !- Handle
  ZONE SURFACE EAST,                      !- Name
  Wall,                                   !- Surface Type
  {f2dd0846-559c-479f-ae93-3c1cc74ebd2a}, !- Construction Name
  {1e241bfb-9f2e-4676-987a-5fba4a8a7d78}, !- Space Name
  Outdoors,                               !- Outside Boundary Condition
  ,                                       !- Outside Boundary Condition Object
  SunExposed,                             !- Sun Exposure
  WindExposed,                            !- Wind Exposure
  0.5,                                    !- View Factor to Ground
  ,                                       !- Number of Vertices
  8, 0, 2.7,                              !- X,Y,Z Vertex 1 {m}
  8, 0, 0,                                !- X,Y,Z Vertex 2 {m}
  8, 6, 0,                                !- X,Y,Z Vertex 3 {m}
  8, 6, 2.7;                              !- X,Y,Z Vertex 4 {m}

OS:Construction,
  {f2dd0846-559c-479f-ae93-3c1cc74ebd2a}, !- Handle
  LTWALL,                                 !- Name
  {482afd50-4329-41c5-ad49-4046ff9c189e}, !- Surface Rendering Name
  {f5b16540-850a-4fbc-ac03-ddca10833ec8}, !- Layer 1
  {4fe0f752-044f-4221-ba8b-628e3cfff42e}, !- Layer 2
  {0ac52e1f-9100-4b96-9c05-65f7c4a306c3}; !- Layer 3

OS:Material,
  {f5b16540-850a-4fbc-ac03-ddca10833ec8}, !- Handle
  WOOD SIDING-1,                          !- Name
  Rough,                                  !- Roughness
  0.009,                                  !- Thickness {m}
  0.14,                                   !- Conductivity {W/m-K}
  530,                                    !- Density {kg/m3}
  900,                                    !- Specific Heat {J/kg-K}
  0.9,                                    !- Thermal Absorptance
  0.6,                                    !- Solar Absorptance
  0.6;                                    !- Visible Absorptance

OS:Material,
  {4fe0f752-044f-4221-ba8b-628e3cfff42e}, !- Handle
  FIBERGLASS QUILT-1,                     !- Name
  Rough,                                  !- Roughness
  0.066,                                  !- Thickness {m}
  0.04,                                   !- Conductivity {W/m-K}
  12,                                     !- Density {kg/m3}
  840,                                    !- Specific Heat {J/kg-K}
  0.9,                                    !- Thermal Absorptance
  0.6,                                    !- Solar Absorptance
  0.6;                                    !- Visible Absorptance

OS:Material,
  {0ac52e1f-9100-4b96-9c05-65f7c4a306c3}, !- Handle
  PLASTERBOARD-1,                         !- Name
  Rough,                                  !- Roughness
  0.012,                                  !- Thickness {m}
  0.16,                                   !- Conductivity {W/m-K}
  950,                                    !- Density {kg/m3}
  840,                                    !- Specific Heat {J/kg-K}
  0.9,                                    !- Thermal Absorptance
  0.6,                                    !- Solar Absorptance
  0.6;                                    !- Visible Absorptance

OS:ThermalZone,
  {f616d0d6-ee8f-40d3-860e-57a4dae94c29}, !- Handle
  ZONE ONE Thermal Zone,                  !- Name
  1,                                      !- Multiplier
  2.7,                                    !- Ceiling Height {m}
  129.6,                                  !- Volume {m3}
  ,                                       !- Floor Area {m2}
  ,                                       !- Zone Inside Convection Algorithm
  ,                                       !- Zone Outside Convection Algorithm
  ,                                       !- Zone Conditioning Equipment List Name
  {9a7b41b8-c072-4fa0-8f82-96da8f860e90}, !- Zone Air Inlet Port List
  {899f7d98-9b49-4e59-9859-a2b3b3992489}, !- Zone Air Exhaust Port List
  {20262715-ef93-4638-9e59-7468a2e28781}, !- Zone Air Node Name
  ,                                       !- Zone Return Air Node Name
  ,                                       !- Primary Daylighting Control Name
  ,                                       !- Fraction of Zone Controlled by Primary Daylighting Control
  ,                                       !- Secondary Daylighting Control Name
  ,                                       !- Fraction of Zone Controlled by Secondary Daylighting Control
  ,                                       !- Illuminance Map Name
  {4cf06787-3178-483b-88c0-83c123ec70db}, !- Group Rendering Name
  {53cd03c1-a325-490e-b58c-71149f46c5e8}, !- Thermostat Name
  No;                                     !- Use Ideal Air Loads

OS:Node,
  {6bc57c9f-e848-4974-8b9c-10b0a11f6654}, !- Handle
  {3c1d18e2-addf-4d6a-86b7-fac436879033}, !- Name
  {20262715-ef93-4638-9e59-7468a2e28781}, !- Inlet Port
  ;                                       !- Outlet Port

OS:Connection,
  {20262715-ef93-4638-9e59-7468a2e28781}, !- Handle
  {68ff37ac-1636-45ae-9340-488202f8d037}, !- Name
  {f616d0d6-ee8f-40d3-860e-57a4dae94c29}, !- Source Object
  11,                                     !- Outlet Port
  {6bc57c9f-e848-4974-8b9c-10b0a11f6654}, !- Target Object
  2;                                      !- Inlet Port

OS:PortList,
  {9a7b41b8-c072-4fa0-8f82-96da8f860e90}, !- Handle
  {437e48d4-627b-4d65-b5d4-26280bd897dd}, !- Name
  {f616d0d6-ee8f-40d3-860e-57a4dae94c29}; !- HVAC Component

OS:PortList,
  {899f7d98-9b49-4e59-9859-a2b3b3992489}, !- Handle
  {715e7998-1656-49c3-b861-9c696446fb85}, !- Name
  {f616d0d6-ee8f-40d3-860e-57a4dae94c29}; !- HVAC Component

OS:Sizing:Zone,
  {a215b551-c248-4ff6-a60b-d32e7df647ad}, !- Handle
  {f616d0d6-ee8f-40d3-860e-57a4dae94c29}, !- Zone or ZoneList Name
  SupplyAirTemperature,                   !- Zone Cooling Design Supply Air Temperature Input Method
  14,                                     !- Zone Cooling Design Supply Air Temperature {C}
  11.11,                                  !- Zone Cooling Design Supply Air Temperature Difference {deltaC}
  SupplyAirTemperature,                   !- Zone Heating Design Supply Air Temperature Input Method
  40,                                     !- Zone Heating Design Supply Air Temperature {C}
  11.11,                                  !- Zone Heating Design Supply Air Temperature Difference {deltaC}
  0.0085,                                 !- Zone Cooling Design Supply Air Humidity Ratio {kg-H2O/kg-air}
  0.008,                                  !- Zone Heating Design Supply Air Humidity Ratio {kg-H2O/kg-air}
  ,                                       !- Zone Heating Sizing Factor
  ,                                       !- Zone Cooling Sizing Factor
  DesignDay,                              !- Cooling Design Air Flow Method
  ,                                       !- Cooling Design Air Flow Rate {m3/s}
  ,                                       !- Cooling Minimum Air Flow per Zone Floor Area {m3/s-m2}
  ,                                       !- Cooling Minimum Air Flow {m3/s}
  ,                                       !- Cooling Minimum Air Flow Fraction
  DesignDay,                              !- Heating Design Air Flow Method
  ,                                       !- Heating Design Air Flow Rate {m3/s}
  ,                                       !- Heating Maximum Air Flow per Zone Floor Area {m3/s-m2}
  ,                                       !- Heating Maximum Air Flow {m3/s}
  ,                                       !- Heating Maximum Air Flow Fraction
  ,                                       !- Design Zone Air Distribution Effectiveness in Cooling Mode
  ,                                       !- Design Zone Air Distribution Effectiveness in Heating Mode
  No,                                     !- Account for Dedicated Outdoor Air System
  NeutralSupplyAir,                       !- Dedicated Outdoor Air System Control Strategy
  autosize,                               !- Dedicated Outdoor Air Low Setpoint Temperature for Design {C}
  autosize;                               !- Dedicated Outdoor Air High Setpoint Temperature for Design {C}

OS:ZoneHVAC:EquipmentList,
  {d422edf5-20c4-4225-81bf-eaee83024cd6}, !- Handle
  {23259d3c-238a-470a-86b6-8679ee4a1c1d}, !- Name
  {f616d0d6-ee8f-40d3-860e-57a4dae94c29}; !- Thermal Zone

OS:Space,
  {1e241bfb-9f2e-4676-987a-5fba4a8a7d78}, !- Handle
  ZONE ONE,                               !- Name
  ,                                       !- Space Type Name
  ,                                       !- Default Construction Set Name
  ,                                       !- Default Schedule Set Name
  0,                                      !- Direction of Relative North {deg}
  0,                                      !- X Origin {m}
  0,                                      !- Y Origin {m}
  0,                                      !- Z Origin {m}
  ,                                       !- Building Story Name
  {f616d0d6-ee8f-40d3-860e-57a4dae94c29}, !- Thermal Zone Name
  ,                                       !- Part of Total Floor Area
  ;                                       !- Design Specification Outdoor Air Object Name

OS:ThermostatSetpoint:DualSetpoint,
  {53cd03c1-a325-490e-b58c-71149f46c5e8}, !- Handle
  {cc7c6d41-6dae-4b49-8472-aa1f73ec6b57}, !- Name
  {ca317843-5d45-46f0-8bf3-57d8185b7d41}, !- Heating Setpoint Temperature Schedule Name
  {ffdb2eb0-a8c3-4c37-9c48-5ab889b6b0e5}; !- Cooling Setpoint Temperature Schedule Name

OS:Schedule:Year,
  {ca317843-5d45-46f0-8bf3-57d8185b7d41}, !- Handle
  Heating Setpoints,                      !- Name
  {576bb2f1-cb3a-4b48-920b-e89228101b9c}, !- Schedule Type Limits Name
  12,                                     !- Month 1
  31,                                     !- Day 1
  {3fd8cced-4ad0-4f27-906c-d63a63f9e21d}; !- Week Schedule Until Date 1

OS:ScheduleTypeLimits,
  {576bb2f1-cb3a-4b48-920b-e89228101b9c}, !- Handle
  Temperature,                            !- Name
  -60,                                    !- Lower Limit Value
  200,                                    !- Upper Limit Value
  Continuous,                             !- Numeric Type
  Temperature;                            !- Unit Type

OS:Schedule:Week,
  {3fd8cced-4ad0-4f27-906c-d63a63f9e21d}, !- Handle
  Zone Heating Setpoint All Weeks,        !- Name
  ,                                       !- Schedule Rendering Name
  {37feb8de-26ff-42d0-8bfb-2a129c89ae5a}, !- Sunday Schedule:Day Name
  {37feb8de-26ff-42d0-8bfb-2a129c89ae5a}, !- Monday Schedule:Day Name
  {37feb8de-26ff-42d0-8bfb-2a129c89ae5a}, !- Tuesday Schedule:Day Name
  {37feb8de-26ff-42d0-8bfb-2a129c89ae5a}, !- Wednesday Schedule:Day Name
  {37feb8de-26ff-42d0-8bfb-2a129c89ae5a}, !- Thursday Schedule:Day Name
  {37feb8de-26ff-42d0-8bfb-2a129c89ae5a}, !- Friday Schedule:Day Name
  {37feb8de-26ff-42d0-8bfb-2a129c89ae5a}, !- Saturday Schedule:Day Name
  {37feb8de-26ff-42d0-8bfb-2a129c89ae5a}, !- Holiday Schedule:Day Name
  {37feb8de-26ff-42d0-8bfb-2a129c89ae5a}, !- SummerDesignDay Schedule:Day Name
  {37feb8de-26ff-42d0-8bfb-2a129c89ae5a}, !- WinterDesignDay Schedule:Day Name
  {37feb8de-26ff-42d0-8bfb-2a129c89ae5a}, !- CustomDay1 Schedule:Day Name
  {37feb8de-26ff-42d0-8bfb-2a129c89ae5a}; !- CustomDay2 Schedule:Day Name

OS:Schedule:Day,
  {37feb8de-26ff-42d0-8bfb-2a129c89ae5a}, !- Handle
  Zone Heating Setpoint All Days,         !- Name
  {576bb2f1-cb3a-4b48-920b-e89228101b9c}, !- Schedule Type Limits Name
  ,                                       !- Interpolate to Timestep
  1,                                      !- Hour 1
  0,                                      !- Minute 1
  20,                                     !- Value Until Time 1
  2,                                      !- Hour 2
  0,                                      !- Minute 2
  20,                                     !- Value Until Time 2
  3,                                      !- Hour 3
  0,                                      !- Minute 3
  20,                                     !- Value Until Time 3
  4,                                      !- Hour 4
  0,                                      !- Minute 4
  20,                                     !- Value Until Time 4
  5,                                      !- Hour 5
  0,                                      !- Minute 5
  20,                                     !- Value Until Time 5
  6,                                      !- Hour 6
  0,                                      !- Minute 6
  20,                                     !- Value Until Time 6
  7,                                      !- Hour 7
  0,                                      !- Minute 7
  20,                                     !- Value Until Time 7
  8,                                      !- Hour 8
  0,                                      !- Minute 8
  20,                                     !- Value Until Time 8
  9,                                      !- Hour 9
  0,                                      !- Minute 9
  20,                                     !- Value Until Time 9
  10,                                     !- Hour 10
  0,                                      !- Minute 10
  20,                                     !- Value Until Time 10
  11,                                     !- Hour 11
  0,                                      !- Minute 11
  20,                                     !- Value Until Time 11
  12,                                     !- Hour 12
  0,                                      !- Minute 12
  20,                                     !- Value Until Time 12
  13,                                     !- Hour 13
  0,                                      !- Minute 13
  20,                                     !- Value Until Time 13
  14,                                     !- Hour 14
  0,                                      !- Minute 14
  20,                                     !- Value Until Time 14
  15,                                     !- Hour 15
  0,                                      !- Minute 15
  20,                                     !- Value Until Time 15
  16,                                     !- Hour 16
  0,                                      !- Minute 16
  20,                                     !- Value Until Time 16
  17,                                     !- Hour 17
  0,                                      !- Minute 17
  20,                                     !- Value Until Time 17
  18,                                     !- Hour 18
  0,                                      !- Minute 18
  20,                                     !- Value Until Time 18
  19,                                     !- Hour 19
  0,                                      !- Minute 19
  20,                                     !- Value Until Time 19
  20,                                     !- Hour 20
  0,                                      !- Minute 20
  20,                                     !- Value Until Time 20
  21,                                     !- Hour 21
  0,                                      !- Minute 21
  20,                                     !- Value Until Time 21
  22,                                     !- Hour 22
  0,                                      !- Minute 22
  20,                                     !- Value Until Time 22
  23,                                     !- Hour 23
  0,                                      !- Minute 23
  20,                                     !- Value Until Time 23
  24,                                     !- Hour 24
  0,                                      !- Minute 24
  20;                                     !- Value Until Time 24

OS:YearDescription,
  {571db513-554f-444a-b557-4fd189bbbe2b}; !- Handle

OS:Schedule:Year,
  {ffdb2eb0-a8c3-4c37-9c48-5ab889b6b0e5}, !- Handle
  Cooling Setpoints,                      !- Name
  {576bb2f1-cb3a-4b48-920b-e89228101b9c}, !- Schedule Type Limits Name
  12,                                     !- Month 1
  31,                                     !- Day 1
  {a9bf0322-bdaa-4e99-8d0d-7f0e7d745358}; !- Week Schedule Until Date 1

OS:Schedule:Week,
  {a9bf0322-bdaa-4e99-8d0d-7f0e7d745358}, !- Handle
  Zone Cooling Setpoint All Weeks,        !- Name
  ,                                       !- Schedule Rendering Name
  {9a3d6e1a-0b56-4b05-b387-76d0ce9ce931}, !- Sunday Schedule:Day Name
  {9a3d6e1a-0b56-4b05-b387-76d0ce9ce931}, !- Monday Schedule:Day Name
  {9a3d6e1a-0b56-4b05-b387-76d0ce9ce931}, !- Tuesday Schedule:Day Name
  {9a3d6e1a-0b56-4b05-b387-76d0ce9ce931}, !- Wednesday Schedule:Day Name
  {9a3d6e1a-0b56-4b05-b387-76d0ce9ce931}, !- Thursday Schedule:Day Name
  {9a3d6e1a-0b56-4b05-b387-76d0ce9ce931}, !- Friday Schedule:Day Name
  {9a3d6e1a-0b56-4b05-b387-76d0ce9ce931}, !- Saturday Schedule:Day Name
  {9a3d6e1a-0b56-4b05-b387-76d0ce9ce931}, !- Holiday Schedule:Day Name
  {9a3d6e1a-0b56-4b05-b387-76d0ce9ce931}, !- SummerDesignDay Schedule:Day Name
  {9a3d6e1a-0b56-4b05-b387-76d0ce9ce931}, !- WinterDesignDay Schedule:Day Name
  {9a3d6e1a-0b56-4b05-b387-76d0ce9ce931}, !- CustomDay1 Schedule:Day Name
  {9a3d6e1a-0b56-4b05-b387-76d0ce9ce931}; !- CustomDay2 Schedule:Day Name

OS:Schedule:Day,
  {9a3d6e1a-0b56-4b05-b387-76d0ce9ce931}, !- Handle
  Zone Cooling Setpoint All Days,         !- Name
  {576bb2f1-cb3a-4b48-920b-e89228101b9c}, !- Schedule Type Limits Name
  ,                                       !- Interpolate to Timestep
  1,                                      !- Hour 1
  0,                                      !- Minute 1
  27,                                     !- Value Until Time 1
  2,                                      !- Hour 2
  0,                                      !- Minute 2
  27,                                     !- Value Until Time 2
  3,                                      !- Hour 3
  0,                                      !- Minute 3
  27,                                     !- Value Until Time 3
  4,                                      !- Hour 4
  0,                                      !- Minute 4
  27,                                     !- Value Until Time 4
  5,                                      !- Hour 5
  0,                                      !- Minute 5
  27,                                     !- Value Until Time 5
  6,                                      !- Hour 6
  0,                                      !- Minute 6
  27,                                     !- Value Until Time 6
  7,                                      !- Hour 7
  0,                                      !- Minute 7
  27,                                     !- Value Until Time 7
  8,                                      !- Hour 8
  0,                                      !- Minute 8
  27,                                     !- Value Until Time 8
  9,                                      !- Hour 9
  0,                                      !- Minute 9
  27,                                     !- Value Until Time 9
  10,                                     !- Hour 10
  0,                                      !- Minute 10
  27,                                     !- Value Until Time 10
  11,                                     !- Hour 11
  0,                                      !- Minute 11
  27,                                     !- Value Until Time 11
  12,                                     !- Hour 12
  0,                                      !- Minute 12
  27,                                     !- Value Until Time 12
  13,                                     !- Hour 13
  0,                                      !- Minute 13
  27,                                     !- Value Until Time 13
  14,                                     !- Hour 14
  0,                                      !- Minute 14
  27,                                     !- Value Until Time 14
  15,                                     !- Hour 15
  0,                                      !- Minute 15
  27,                                     !- Value Until Time 15
  16,                                     !- Hour 16
  0,                                      !- Minute 16
  27,                                     !- Value Until Time 16
  17,                                     !- Hour 17
  0,                                      !- Minute 17
  27,                                     !- Value Until Time 17
  18,                                     !- Hour 18
  0,                                      !- Minute 18
  27,                                     !- Value Until Time 18
  19,                                     !- Hour 19
  0,                                      !- Minute 19
  27,                                     !- Value Until Time 19
  20,                                     !- Hour 20
  0,                                      !- Minute 20
  27,                                     !- Value Until Time 20