
OS:Version,
  {d4f3b96b-d093-4ca8-b777-37cf80789cb2}, !- Handle
  1.13.1;                                 !- Version Identifier

OS:Site,
  {bc874655-a927-4872-a278-1347186bb1d9}, !- Handle
  Ottawa Int'l_ON_CAN,                    !- Name
  45.32,                                  !- Latitude {deg}
  -75.67,                                 !- Longitude {deg}
  -5,                                     !- Time Zone {hr}
  114,                                    !- Elevation {m}
  Country;                                !- Terrain

OS:YearDescription,
  {9116ce1c-534f-4b3a-9d15-2bb1a805c7e1}, !- Handle
  ,                                       !- Calendar Year
  ;                                       !- Day of Week for Start Day

OS:ClimateZones,
  {dd268d6b-2da7-4abc-b8ad-35d0988c56cd}, !- Handle
  ,                                       !- Active Institution
  ,                                       !- Active Year
  ASHRAE,                                 !- Climate Zone Institution Name 1
  ANSI/ASHRAE Standard 169,               !- Climate Zone Document Name 1
  2006,                                   !- Climate Zone Document Year 1
  ,                                       !- Climate Zone Value 1
  CEC,                                    !- Climate Zone Institution Name 2
  California Climate Zone Descriptions,   !- Climate Zone Document Name 2
  1995,                                   !- Climate Zone Document Year 2
  ;                                       !- Climate Zone Value 2

OS:Facility,
  {01cd2b0a-8ee0-4ab6-a2fb-9f6c7d21094d}; !- Handle

OS:SimulationControl,
  {30e9303f-ed23-491c-b310-8ef7274e967f}, !- Handle
  ,                                       !- Do Zone Sizing Calculation
  ,                                       !- Do System Sizing Calculation
  ,                                       !- Do Plant Sizing Calculation
  No,                                     !- Run Simulation for Sizing Periods
  ,                                       !- Run Simulation for Weather File Run Periods
  ,                                       !- Loads Convergence Tolerance Value
  ,                                       !- Temperature Convergence Tolerance Value {deltaC}
  FullInteriorAndExterior,                !- Solar Distribution
  ,                                       !- Maximum Number of Warmup Days
  6;                                      !- Minimum Number of Warmup Days

OS:Sizing:Parameters,
  {c983733e-8a2d-428d-8380-a9c380f3d01c}, !- Handle
  1.25,                                   !- Heating Sizing Factor
  1.15;                                   !- Cooling Sizing Factor

OS:Timestep,
  {7a470c9d-4813-47b4-b276-325100b7b62f}, !- Handle
  4;                                      !- Number of Timesteps per Hour

OS:ShadowCalculation,
  {21696cf9-7a12-43bf-ac4c-50d1be8bf2fd}, !- Handle
  20,                                     !- Calculation Frequency
  15000;                                  !- Maximum Figures in Shadow Overlap Calculations

OS:HeatBalanceAlgorithm,
  {09f4a614-27ba-43a9-a0ac-4379e03c44e8}, !- Handle
  ConductionTransferFunction,             !- Algorithm
  200,                                    !- Surface Temperature Upper Limit {C}
  1e-07;                                  !- Minimum Surface Convection Heat Transfer Coefficient Value {W/m2-K}

OS:RunPeriod,
  {322b0b21-e55e-459f-b4f2-853d2d37fd9a}, !- Handle
  Run Period 1,                           !- Name
  1,                                      !- Begin Month
  1,                                      !- Begin Day of Month
  3,                                      !- End Month
  31,                                     !- End Day of Month
  ,                                       !- Use Weather File Holidays and Special Days
  ,                                       !- Use Weather File Daylight Saving Period
  ,                                       !- Apply Weekend Holiday Rule
  ,                                       !- Use Weather File Rain Indicators
  ,                                       !- Use Weather File Snow Indicators
  ;                                       !- Number of Times Runperiod to be Repeated

OS:LifeCycleCost:Parameters,
  {a8ce31c8-7533-4ad7-aa7a-5380b4197455}, !- Handle
  ,                                       !- Analysis Type
  ,                                       !- Discounting Convention
  ,                                       !- Inflation Approach
  ,                                       !- Real Discount Rate
  ,                                       !- Nominal Discount Rate
  ,                                       !- Inflation
  ,                                       !- Base Date Month
  ,                                       !- Base Date Year
  ,                                       !- Service Date Month
  ,                                       !- Service Date Year
  ;                                       !- Length of Study Period in Years

OS:SurfaceConvectionAlgorithm:Inside,
  {0ba656d8-7611-48bb-9a44-b23e4dc97599}, !- Handle
  Simple;                                 !- Algorithm

OS:SurfaceConvectionAlgorithm:Outside,
  {368eeb20-15cb-449e-ad19-5c5e23abd2fc}, !- Handle
  DOE-2;                                  !- Algorithm

OS:WeatherFile,
  {65c98668-ad20-4d40-bd1e-8ebad5874640}, !- Handle
  Ottawa Int'l,                           !- City
  ON,                                     !- State Province Region
  CAN,                                    !- Country
  WYEC2-B-04772,                          !- Data Source
  716280,                                 !- WMO Number
  45.32,                                  !- Latitude {deg}
  -75.67,                                 !- Longitude {deg}
  -5,                                     !- Time Zone {hr}
  114,                                    !- Elevation {m}
  file:///Users/dgoldwas/Documents/GitHub/OSEP_BESTTEST/measures/bestest_space_heating_equipment_performance_tests/resources/HE100WWY2.epw, !- Url
  FB484A5B;                               !- Checksum

OS:SizingPeriod:DesignDay,
  {0fc2160d-09fb-4de5-8dac-46d521ec7f2f}, !- Handle
  Sizing Period Design Day 1,             !- Name
  23,                                     !- Maximum Dry-Bulb Temperature {C}
  0,                                      !- Daily Dry-Bulb Temperature Range {deltaC}
  23,                                     !- Humidity Indicating Conditions at Maximum Dry-Bulb
  31000,                                  !- Barometric Pressure {Pa}
  0,                                      !- Wind Speed {m/s}
  0,                                      !- Wind Direction {deg}
  0,                                      !- Sky Clearness
  ,                                       !- Rain Indicator
  0,                                      !- Snow Indicator
  1,                                      !- Day of Month
  1,                                      !- Month
  SummerDesignDay,                        !- Day Type
  0,                                      !- Daylight Saving Time Indicator
  WetBulb,                                !- Humidity Indicating Type
  ,                                       !- Humidity Indicating Day Schedule Name
  DefaultMultipliers,                     !- Dry-Bulb Temperature Range Modifier Type
  ,                                       !- Dry-Bulb Temperature Range Modifier Schedule Name
  AshraeClearSky;                         !- Solar Model Indicator

OS:SizingPeriod:DesignDay,
  {fd5309e1-a976-446e-b658-1becaa577add}, !- Handle
  Sizing Period Design Day 2,             !- Name
  23,                                     !- Maximum Dry-Bulb Temperature {C}
  0,                                      !- Daily Dry-Bulb Temperature Range {deltaC}
  23,                                     !- Humidity Indicating Conditions at Maximum Dry-Bulb
  31000,                                  !- Barometric Pressure {Pa}
  0,                                      !- Wind Speed {m/s}
  0,                                      !- Wind Direction {deg}
  0,                                      !- Sky Clearness
  ,                                       !- Rain Indicator
  0,                                      !- Snow Indicator
  1,                                      !- Day of Month
  1,                                      !- Month
  WinterDesignDay,                        !- Day Type
  0,                                      !- Daylight Saving Time Indicator
  WetBulb,                                !- Humidity Indicating Type
  ,                                       !- Humidity Indicating Day Schedule Name
  DefaultMultipliers,                     !- Dry-Bulb Temperature Range Modifier Type
  ,                                       !- Dry-Bulb Temperature Range Modifier Schedule Name
  AshraeClearSky;                         !- Solar Model Indicator

OS:Building,
  {d4beb155-9d31-44f1-9235-93d4544a08cf}, !- Handle
  BESTEST Case HE100 - Base-case Building and Mechanical Systems, !- Name
  ,                                       !- Building Sector Type
  0,                                      !- North Axis {deg}
  ,                                       !- Nominal Floor to Floor Height {m}
  ,                                       !- Space Type Name
  ,                                       !- Default Construction Set Name
  ;                                       !- Default Schedule Set Name

OS:ThermalZone,
  {8fba47f6-46c1-48b3-91fe-43a48dced1d6}, !- Handle
  ZONE ONE,                               !- Name
  1,                                      !- Multiplier
  2.7,                                    !- Ceiling Height {m}
  129.6,                                  !- Volume {m3}
  ,                                       !- Floor Area {m2}
  ,                                       !- Zone Inside Convection Algorithm
  ,                                       !- Zone Outside Convection Algorithm
  ,                                       !- Zone Conditioning Equipment List Name
  {529e3c89-3c8c-4a90-a215-989015639b2f}, !- Zone Air Inlet Port List
  {982ceb9f-8716-4ec6-be94-e4ae81cfab7d}, !- Zone Air Exhaust Port List
  {27dbcb34-76b8-4061-8a7e-fec1ff1cfdb2}, !- Zone Air Node Name
  {5335badd-10bd-41cf-9eb3-1e42536f5aaf}, !- Zone Return Air Node Name
  ,                                       !- Primary Daylighting Control Name
  ,                                       !- Fraction of Zone Controlled by Primary Daylighting Control
  ,                                       !- Secondary Daylighting Control Name
  ,                                       !- Fraction of Zone Controlled by Secondary Daylighting Control
  ,                                       !- Illuminance Map Name
  ,                                       !- Group Rendering Name
  {085f87d5-d31d-4a58-bc6f-c6b0123bbfb6}, !- Thermostat Name
  No,                                     !- Use Ideal Air Loads
  ;                                       !- Humidistat Name

OS:Node,
  {e4fac4c1-ab16-4379-b62e-d3592deb5f7c}, !- Handle
  Node 1,                                 !- Name
  {27dbcb34-76b8-4061-8a7e-fec1ff1cfdb2}, !- Inlet Port
  ;                                       !- Outlet Port

OS:Connection,
  {27dbcb34-76b8-4061-8a7e-fec1ff1cfdb2}, !- Handle
  {1d5fbfd1-a5fa-4a8a-aa9c-db893af4f2d8}, !- Name
  {8fba47f6-46c1-48b3-91fe-43a48dced1d6}, !- Source Object
  11,                                     !- Outlet Port
  {e4fac4c1-ab16-4379-b62e-d3592deb5f7c}, !- Target Object
  2;                                      !- Inlet Port

OS:PortList,
  {529e3c89-3c8c-4a90-a215-989015639b2f}, !- Handle
  Port List 1,                            !- Name
  {8fba47f6-46c1-48b3-91fe-43a48dced1d6}, !- HVAC Component
  {72a8456c-a565-4d00-9f86-bae023f98893}; !- Port 1

OS:PortList,
  {982ceb9f-8716-4ec6-be94-e4ae81cfab7d}, !- Handle
  Port List 2,                            !- Name
  {8fba47f6-46c1-48b3-91fe-43a48dced1d6}; !- HVAC Component

OS:Sizing:Zone,
  {8599eecd-3353-4048-b295-622465927f10}, !- Handle
  {8fba47f6-46c1-48b3-91fe-43a48dced1d6}, !- Zone or ZoneList Name
  SupplyAirTemperature,                   !- Zone Cooling Design Supply Air Temperature Input Method
  14,                                     !- Zone Cooling Design Supply Air Temperature {C}
  11.11,                                  !- Zone Cooling Design Supply Air Temperature Difference {deltaC}
  SupplyAirTemperature,                   !- Zone Heating Design Supply Air Temperature Input Method
  40,                                     !- Zone Heating Design Supply Air Temperature {C}
  11.11,                                  !- Zone Heating Design Supply Air Temperature Difference {deltaC}
  0.0085,                                 !- Zone Cooling Design Supply Air Humidity Ratio {kg-H2O/kg-air}
  0.008,                                  !- Zone Heating Design Supply Air Humidity Ratio {kg-H2O/kg-air}
  ,                                       !- Zone Heating Sizing Factor
  ,                                       !- Zone Cooling Sizing Factor
  DesignDay,                              !- Cooling Design Air Flow Method
  ,                                       !- Cooling Design Air Flow Rate {m3/s}
  ,                                       !- Cooling Minimum Air Flow per Zone Floor Area {m3/s-m2}
  ,                                       !- Cooling Minimum Air Flow {m3/s}
  ,                                       !- Cooling Minimum Air Flow Fraction
  DesignDay,                              !- Heating Design Air Flow Method
  ,                                       !- Heating Design Air Flow Rate {m3/s}
  ,                                       !- Heating Maximum Air Flow per Zone Floor Area {m3/s-m2}
  ,                                       !- Heating Maximum Air Flow {m3/s}
  ,                                       !- Heating Maximum Air Flow Fraction
  ,                                       !- Design Zone Air Distribution Effectiveness in Cooling Mode
  ,                                       !- Design Zone Air Distribution Effectiveness in Heating Mode
  No,                                     !- Account for Dedicated Outdoor Air System
  NeutralSupplyAir,                       !- Dedicated Outdoor Air System Control Strategy
  autosize,                               !- Dedicated Outdoor Air Low Setpoint Temperature for Design {C}
  autosize;                               !- Dedicated Outdoor Air High Setpoint Temperature for Design {C}

OS:ZoneHVAC:EquipmentList,
  {0c584545-de73-4eea-8600-1c999235242f}, !- Handle
  Zone HVAC Equipment List 1,             !- Name
  {8fba47f6-46c1-48b3-91fe-43a48dced1d6}, !- Thermal Zone
  {6356e240-31af-4efd-b365-ab7800e0329a}, !- Zone Equipment 1
  1,                                      !- Zone Equipment Cooling Sequence 1
  1;                                      !- Zone Equipment Heating or No-Load Sequence 1

OS:Space,
  {af5d3a4b-31ab-4ee3-9b58-0e3b1aeddc7a}, !- Handle
  ZONE ONE Space,                         !- Name
  ,                                       !- Space Type Name
  ,                                       !- Default Construction Set Name
  ,                                       !- Default Schedule Set Name
  0,                                      !- Direction of Relative North {deg}
  0,                                      !- X Origin {m}
  0,                                      !- Y Origin {m}
  0,                                      !- Z Origin {m}
  ,                                       !- Building Story Name
  {8fba47f6-46c1-48b3-91fe-43a48dced1d6}; !- Thermal Zone Name

OS:Surface,
  {464ba97c-c9da-496b-8218-a82136945d4c}, !- Handle
  ZONE SURFACE WEST,                      !- Name
  Wall,                                   !- Surface Type
  {05f1fc81-3dfe-4832-a232-c6a2d895e8fa}, !- Construction Name
  {af5d3a4b-31ab-4ee3-9b58-0e3b1aeddc7a}, !- Space Name
  Outdoors,                               !- Outside Boundary Condition
  ,                                       !- Outside Boundary Condition Object
  SunExposed,                             !- Sun Exposure
  WindExposed,                            !- Wind Exposure
  0,                                      !- View Factor to Ground
  ,                                       !- Number of Vertices
  0, 6, 2.7,                              !- X,Y,Z Vertex 1 {m}
  0, 6, 0,                                !- X,Y,Z Vertex 2 {m}
  0, 0, 0,                                !- X,Y,Z Vertex 3 {m}
  0, 0, 2.7;                              !- X,Y,Z Vertex 4 {m}

OS:Construction,
  {05f1fc81-3dfe-4832-a232-c6a2d895e8fa}, !- Handle
  WALL-FLOOR,                             !- Name
  ,                                       !- Surface Rendering Name
  {ea97b994-0f55-4e84-8fe9-578dc95b8a8b}; !- Layer 1

OS:StandardsInformation:Construction,
  {196f8b5c-f9a6-4865-8269-035f4c911e32}, !- Handle
  {05f1fc81-3dfe-4832-a232-c6a2d895e8fa}; !- Construction Name

OS:Material:NoMass,
  {ea97b994-0f55-4e84-8fe9-578dc95b8a8b}, !- Handle
  INSULATION-Wall-Floor,                  !- Name
  VerySmooth,                             !- Roughness
  100,                                    !- Thermal Resistance {m2-K/W}
  1e-07,                                  !- Thermal Absorptance
  0,                                      !- Solar Absorptance
  0;                                      !- Visible Absorptance

OS:StandardsInformation:Material,
  {e92e05d1-1033-442c-98a2-2a52bf0d84de}, !- Handle
  {ea97b994-0f55-4e84-8fe9-578dc95b8a8b}; !- Material Name

OS:Surface,
  {11c3e30a-d421-4f3e-ae8d-e93acf36a99c}, !- Handle
  ZONE SURFACE ROOF,                      !- Name
  RoofCeiling,                            !- Surface Type
  {9de1464c-6c6e-43b8-9252-55113e939d7d}, !- Construction Name
  {af5d3a4b-31ab-4ee3-9b58-0e3b1aeddc7a}, !- Space Name
  Outdoors,                               !- Outside Boundary Condition
  ,                                       !- Outside Boundary Condition Object
  SunExposed,                             !- Sun Exposure
  WindExposed,                            !- Wind Exposure
  0,                                      !- View Factor to Ground
  ,                                       !- Number of Vertices
  8, 0, 2.7,                              !- X,Y,Z Vertex 1 {m}
  8, 6, 2.7,                              !- X,Y,Z Vertex 2 {m}
  0, 6, 2.7,                              !- X,Y,Z Vertex 3 {m}
  0, 0, 2.7;                              !- X,Y,Z Vertex 4 {m}

OS:Construction,
  {9de1464c-6c6e-43b8-9252-55113e939d7d}, !- Handle
  ROOF,                                   !- Name
  ,                                       !- Surface Rendering Name
  {18712466-155e-44b2-a776-30e95ac258eb}; !- Layer 1

OS:StandardsInformation:Construction,
  {0bbf9775-acf4-45ff-8d3a-9b8c8801f30c}, !- Handle
  {9de1464c-6c6e-43b8-9252-55113e939d7d}; !- Construction Name

OS:Material:NoMass,
  {18712466-155e-44b2-a776-30e95ac258eb}, !- Handle
  INSULATION-Roof,                        !- Name
  VerySmooth,                             !- Roughness
  0.14,                                   !- Thermal Resistance {m2-K/W}
  1e-07,                                  !- Thermal Absorptance
  0,                                      !- Solar Absorptance
  0;                                      !- Visible Absorptance

OS:StandardsInformation:Material,
  {686b19ce-7a20-4edc-a896-17629efd357f}, !- Handle
  {18712466-155e-44b2-a776-30e95ac258eb}; !- Material Name

OS:Surface,
  {a349ff96-7716-4aa9-9a01-3063d6c8bd99}, !- Handle
  ZONE SURFACE FLOOR,                     !- Name
  Floor,                                  !- Surface Type
  {05f1fc81-3dfe-4832-a232-c6a2d895e8fa}, !- Construction Name
  {af5d3a4b-31ab-4ee3-9b58-0e3b1aeddc7a}, !- Space Name
  Outdoors,                               !- Outside Boundary Condition
  ,                                       !- Outside Boundary Condition Object
  SunExposed,                             !- Sun Exposure
  WindExposed,                            !- Wind Exposure
  0,                                      !- View Factor to Ground
  ,                                       !- Number of Vertices
  8, 6, 0,                                !- X,Y,Z Vertex 1 {m}
  8, 0, 0,                                !- X,Y,Z Vertex 2 {m}
  0, 0, 0,                                !- X,Y,Z Vertex 3 {m}
  0, 6, 0;                                !- X,Y,Z Vertex 4 {m}

OS:Surface,
  {e40fc585-e6b9-4062-a38f-0c33adffed11}, !- Handle
  ZONE SURFACE EAST,                      !- Name
  Wall,                                   !- Surface Type
  {05f1fc81-3dfe-4832-a232-c6a2d895e8fa}, !- Construction Name
  {af5d3a4b-31ab-4ee3-9b58-0e3b1aeddc7a}, !- Space Name
  Outdoors,                               !- Outside Boundary Condition
  ,                                       !- Outside Boundary Condition Object
  SunExposed,                             !- Sun Exposure
  WindExposed,                            !- Wind Exposure
  0,                                      !- View Factor to Ground
  ,                                       !- Number of Vertices
  8, 0, 2.7,                              !- X,Y,Z Vertex 1 {m}
  8, 0, 0,                                !- X,Y,Z Vertex 2 {m}
  8, 6, 0,                                !- X,Y,Z Vertex 3 {m}
  8, 6, 2.7;                              !- X,Y,Z Vertex 4 {m}

OS:Surface,
  {90ce48b8-2789-407d-b595-ac25cc9d80f9}, !- Handle
  ZONE SURFACE SOUTH,                     !- Name
  Wall,                                   !- Surface Type
  {05f1fc81-3dfe-4832-a232-c6a2d895e8fa}, !- Construction Name
  {af5d3a4b-31ab-4ee3-9b58-0e3b1aeddc7a}, !- Space Name
  Outdoors,                               !- Outside Boundary Condition
  ,                                       !- Outside Boundary Condition Object
  SunExposed,                             !- Sun Exposure
  WindExposed,                            !- Wind Exposure
  0,                                      !- View Factor to Ground
  ,                                       !- Number of Vertices
  0, 0, 2.7,                              !- X,Y,Z Vertex 1 {m}
  0, 0, 0,                                !- X,Y,Z Vertex 2 {m}
  8, 0, 0,                                !- X,Y,Z Vertex 3 {m}
  8, 0, 2.7;                              !- X,Y,Z Vertex 4 {m}

OS:Surface,
  {8f2ea23b-2e1e-4143-9e1c-6f98df4fd48c}, !- Handle
  ZONE SURFACE NORTH,                     !- Name
  Wall,                                   !- Surface Type
  {05f1fc81-3dfe-4832-a232-c6a2d895e8fa}, !- Construction Name
  {af5d3a4b-31ab-4ee3-9b58-0e3b1aeddc7a}, !- Space Name
  Outdoors,                               !- Outside Boundary Condition
  ,                                       !- Outside Boundary Condition Object
  SunExposed,                             !- Sun Exposure
  WindExposed,                            !- Wind Exposure
  0,                                      !- View Factor to Ground
  ,                                       !- Number of Vertices
  8, 6, 2.7,                              !- X,Y,Z Vertex 1 {m}
  8, 6, 0,                                !- X,Y,Z Vertex 2 {m}
  0, 6, 0,                                !- X,Y,Z Vertex 3 {m}
  0, 6, 2.7;                              !- X,Y,Z Vertex 4 {m}

OS:SurfaceProperty:ConvectionCoefficients:MultipleSurface,
  {680e86c0-3ea8-4f3d-8f87-63e16fab8437}, !- Handle
  AllExteriorWalls,                       !- Surface Type
  Inside,                                 !- Convection Coefficient 1 Location
  Value,                                  !- Convection Coefficient 1 Type
  0.1,                                    !- Convection Coefficient 1 {W/m2-K}
  ,                                       !- Convection Coefficient 1 Schedule Name
  ,                                       !- Convection Coefficient 1 User Curve Name
  Outside,                                !- Convection Coefficient 2 Location
  Value,                                  !- Convection Coefficient 2 Type
  1e-07;                                  !- Convection Coefficient 2 {W/m2-K}

OS:SurfaceProperty:ConvectionCoefficients:MultipleSurface,
  {b49c5725-2382-4684-a076-024069d0f4a1}, !- Handle
  AllExteriorRoofs,                       !- Surface Type
  Inside,                                 !- Convection Coefficient 1 Location
  Value,                                  !- Convection Coefficient 1 Type
  20,                                     !- Convection Coefficient 1 {W/m2-K}
  ,                                       !- Convection Coefficient 1 Schedule Name
  ,                                       !- Convection Coefficient 1 User Curve Name
  Outside,                                !- Convection Coefficient 2 Location
  Value,                                  !- Convection Coefficient 2 Type
  20;                                     !- Convection Coefficient 2 {W/m2-K}

OS:Schedule:Ruleset,
  {ee96d794-bfa4-4142-a521-94034703a68f}, !- Handle
  No Cooling,                             !- Name
  {f78bccf0-c2e8-4c63-8eba-c2db10ec6584}, !- Schedule Type Limits Name
  {848fb3f8-3cb1-423a-b707-aeee0cbddd81}; !- Default Day Schedule Name

OS:ScheduleTypeLimits,
  {f78bccf0-c2e8-4c63-8eba-c2db10ec6584}, !- Handle
  Temperature,                            !- Name
  ,                                       !- Lower Limit Value
  ,                                       !- Upper Limit Value
  Continuous,                             !- Numeric Type
  Temperature;                            !- Unit Type

OS:Schedule:Day,
  {848fb3f8-3cb1-423a-b707-aeee0cbddd81}, !- Handle
  Schedule Day 5,                         !- Name
  {f78bccf0-c2e8-4c63-8eba-c2db10ec6584}, !- Schedule Type Limits Name
  ,                                       !- Interpolate to Timestep
  24,                                     !- Hour 1
  0,                                      !- Minute 1
  100;                                    !- Value Until Time 1

OS:Schedule:Constant,
  {29ca238d-3e13-4539-be54-ac76eb75a0ac}, !- Handle
  20.0 C,                                 !- Name
  {f78bccf0-c2e8-4c63-8eba-c2db10ec6584}, !- Schedule Type Limits Name
  20;                                     !- Value

OS:ThermostatSetpoint:DualSetpoint,
  {085f87d5-d31d-4a58-bc6f-c6b0123bbfb6}, !- Handle
  Thermostat Setpoint Dual Setpoint 1,    !- Name
  {29ca238d-3e13-4539-be54-ac76eb75a0ac}, !- Heating Setpoint Temperature Schedule Name
  {ee96d794-bfa4-4142-a521-94034703a68f}; !- Cooling Setpoint Temperature Schedule Name

OS:Schedule:Constant,
  {b07b95bc-494e-4173-a0f9-10c8786940e0}, !- Handle
  Always On Discrete,                     !- Name
  {0a6489fc-7d4d-4d44-b0ce-71bbfa7815f3}, !- Schedule Type Limits Name
  1;                                      !- Value

OS:ScheduleTypeLimits,
  {0a6489fc-7d4d-4d44-b0ce-71bbfa7815f3}, !- Handle
  OnOff,                                  !- Name
  0,                                      !- Lower Limit Value
  1,                                      !- Upper Limit Value
  Discrete,                               !- Numeric Type
  Availability;                           !- Unit Type

OS:AirLoopHVAC,
  {b9408df4-e3bd-4f48-bbda-404b52bffaba}, !- Handle
  BESTEST HE air loop,                    !- Name
  ,                                       !- Controller List Name
  {b07b95bc-494e-4173-a0f9-10c8786940e0}, !- Availability Schedule
  ,                                       !- Availability Manager
  0.355,                                  !- Design Supply Air Flow Rate {m3/s}
  ,                                       !- Branch List Name
  ,                                       !- Connector List Name
  {8904c81a-4384-40f0-b245-d51d0eb6a6c0}, !- Supply Side Inlet Node Name
  {075396f3-4b2a-427d-8540-4f422b75c3aa}, !- Demand Side Outlet Node Name
  {fe2037e7-a04f-4162-b5d7-ac825d4e22ce}, !- Demand Side Inlet Node A
  {a82acbbe-8178-4eb7-a145-4208691d502c}, !- Supply Side Outlet Node A
  ,                                       !- Demand Side Inlet Node B
  ;                                       !- Supply Side Outlet Node B

OS:Node,
  {5da3b9c8-4129-4c5c-a956-9aad5211e18c}, !- Handle
  Node 2,                                 !- Name
  {8904c81a-4384-40f0-b245-d51d0eb6a6c0}, !- Inlet Port
  {5e62085f-c63d-41e0-9da3-7f6ac251cbf7}; !- Outlet Port

OS:Node,
  {6f1a44ac-9bf6-4b00-8a77-9c436d0a892a}, !- Handle
  Node 3,                                 !- Name
  {15eaa612-3d4b-438f-8634-94ef8d86e47b}, !- Inlet Port
  {a82acbbe-8178-4eb7-a145-4208691d502c}; !- Outlet Port

OS:Connection,
  {8904c81a-4384-40f0-b245-d51d0eb6a6c0}, !- Handle
  {d1e5963a-7959-4e11-a01b-e2b00406698e}, !- Name
  {b9408df4-e3bd-4f48-bbda-404b52bffaba}, !- Source Object
  8,                                      !- Outlet Port
  {5da3b9c8-4129-4c5c-a956-9aad5211e18c}, !- Target Object
  2;                                      !- Inlet Port

OS:Connection,
  {a82acbbe-8178-4eb7-a145-4208691d502c}, !- Handle
  {804eee17-ccaa-488a-bfe0-6c0956ec6022}, !- Name
  {6f1a44ac-9bf6-4b00-8a77-9c436d0a892a}, !- Source Object
  3,                                      !- Outlet Port
  {b9408df4-e3bd-4f48-bbda-404b52bffaba}, !- Target Object
  11;                                     !- Inlet Port

OS:Node,
  {59ec1ef4-fd51-4cb2-84eb-622a525667db}, !- Handle
  Node 4,                                 !- Name
  {fe2037e7-a04f-4162-b5d7-ac825d4e22ce}, !- Inlet Port
  {c6cde3b6-c4fd-4054-8c77-456c2fc0056d}; !- Outlet Port

OS:Node,
  {0c540ec3-07ce-4c76-9f0e-12adc46137e1}, !- Handle
  Node 5,                                 !- Name
  {66450c6d-b816-4285-ab59-0e92fc3b9330}, !- Inlet Port
  {075396f3-4b2a-427d-8540-4f422b75c3aa}; !- Outlet Port

OS:Node,
  {a749ed87-5a0c-4eb1-a17f-8a3ab1df78af}, !- Handle
  Node 6,                                 !- Name
  {edfabfaf-d99f-4743-a3d2-286332f32bd3}, !- Inlet Port
  {72a8456c-a565-4d00-9f86-bae023f98893}; !- Outlet Port

OS:Connection,
  {fe2037e7-a04f-4162-b5d7-ac825d4e22ce}, !- Handle
  {353b7d53-a0cc-4518-bab8-5afe43ab66a9}, !- Name