
OS:Version,
  {ccea11e3-ce5e-47f3-9b26-720c2dfc65ee}, !- Handle
  1.12.2;                                 !- Version Identifier

OS:Site,
  {bc874655-a927-4872-a278-1347186bb1d9}, !- Handle
  Ottawa Int'l_ON_CAN,                    !- Name
  45.32,                                  !- Latitude {deg}
  -75.67,                                 !- Longitude {deg}
  -5,                                     !- Time Zone {hr}
  114,                                    !- Elevation {m}
  Country;                                !- Terrain

OS:YearDescription,
  {9116ce1c-534f-4b3a-9d15-2bb1a805c7e1}, !- Handle
  ,                                       !- Calendar Year
  ;                                       !- Day of Week for Start Day

OS:ClimateZones,
  {dd268d6b-2da7-4abc-b8ad-35d0988c56cd}, !- Handle
  ,                                       !- Active Institution
  ,                                       !- Active Year
  ASHRAE,                                 !- Climate Zone Institution Name 1
  ANSI/ASHRAE Standard 169,               !- Climate Zone Document Name 1
  2006,                                   !- Climate Zone Document Year 1
  ,                                       !- Climate Zone Value 1
  CEC,                                    !- Climate Zone Institution Name 2
  California Climate Zone Descriptions,   !- Climate Zone Document Name 2
  1995,                                   !- Climate Zone Document Year 2
  ;                                       !- Climate Zone Value 2

OS:Facility,
  {01cd2b0a-8ee0-4ab6-a2fb-9f6c7d21094d}; !- Handle

OS:SimulationControl,
  {30e9303f-ed23-491c-b310-8ef7274e967f}, !- Handle
  ,                                       !- Do Zone Sizing Calculation
  ,                                       !- Do System Sizing Calculation
  ,                                       !- Do Plant Sizing Calculation
  ,                                       !- Run Simulation for Sizing Periods
  ,                                       !- Run Simulation for Weather File Run Periods
  ,                                       !- Loads Convergence Tolerance Value
  ,                                       !- Temperature Convergence Tolerance Value {deltaC}
  FullInteriorAndExterior,                !- Solar Distribution
  ,                                       !- Maximum Number of Warmup Days
  6;                                      !- Minimum Number of Warmup Days

OS:Sizing:Parameters,
  {c983733e-8a2d-428d-8380-a9c380f3d01c}, !- Handle
  1.25,                                   !- Heating Sizing Factor
  1.15;                                   !- Cooling Sizing Factor

OS:Timestep,
  {7a470c9d-4813-47b4-b276-325100b7b62f}, !- Handle
  6;                                      !- Number of Timesteps per Hour

OS:ShadowCalculation,
  {21696cf9-7a12-43bf-ac4c-50d1be8bf2fd}, !- Handle
  20,                                     !- Calculation Frequency
  15000;                                  !- Maximum Figures in Shadow Overlap Calculations

OS:HeatBalanceAlgorithm,
  {09f4a614-27ba-43a9-a0ac-4379e03c44e8}, !- Handle
  ConductionTransferFunction,             !- Algorithm
  200,                                    !- Surface Temperature Upper Limit {C}
  1e-07;                                  !- Minimum Surface Convection Heat Transfer Coefficient Value {W/m2-K}

OS:RunPeriod,
  {322b0b21-e55e-459f-b4f2-853d2d37fd9a}, !- Handle
  Run Period 1,                           !- Name
  1,                                      !- Begin Month
  1,                                      !- Begin Day of Month
  3,                                      !- End Month
  31,                                     !- End Day of Month
  ,                                       !- Use Weather File Holidays and Special Days
  ,                                       !- Use Weather File Daylight Saving Period
  ,                                       !- Apply Weekend Holiday Rule
  ,                                       !- Use Weather File Rain Indicators
  ,                                       !- Use Weather File Snow Indicators
  ;                                       !- Number of Times Runperiod to be Repeated

OS:LifeCycleCost:Parameters,
  {a8ce31c8-7533-4ad7-aa7a-5380b4197455}, !- Handle
  ,                                       !- Analysis Type
  ,                                       !- Discounting Convention
  ,                                       !- Inflation Approach
  ,                                       !- Real Discount Rate
  ,                                       !- Nominal Discount Rate
  ,                                       !- Inflation
  ,                                       !- Base Date Month
  ,                                       !- Base Date Year
  ,                                       !- Service Date Month
  ,                                       !- Service Date Year
  ;                                       !- Length of Study Period in Years

OS:SurfaceConvectionAlgorithm:Inside,
  {99c0dd85-f592-4c04-a0ea-8200d6079edd}, !- Handle
  Simple;                                 !- Algorithm

OS:SurfaceConvectionAlgorithm:Outside,
  {fc44b126-c4cb-40e2-b7ac-3f31f07a763e}, !- Handle
  DOE-2;                                  !- Algorithm

OS:WeatherFile,
  {4452d2fc-147d-4fe3-9b8b-1b19b0af4743}, !- Handle
  Ottawa Int'l,                           !- City
  ON,                                     !- State Province Region
  CAN,                                    !- Country
  WYEC2-B-04772,                          !- Data Source
  716280,                                 !- WMO Number
  45.32,                                  !- Latitude {deg}
  -75.67,                                 !- Longitude {deg}
  -5,                                     !- Time Zone {hr}
  114,                                    !- Elevation {m}
  file:///Users/dgoldwas/Documents/GitHub/OSEP_BESTTEST/measures/bestest_space_heating_equipment_performance_tests/resources/HE100WWY2.epw, !- Url
  FB484A5B;                               !- Checksum

OS:SizingPeriod:DesignDay,
  {4b187bba-dd5c-45d6-8a70-a9e54e0f5d0a}, !- Handle
  Sizing Period Design Day 1,             !- Name
  23,                                     !- Maximum Dry-Bulb Temperature {C}
  0,                                      !- Daily Dry-Bulb Temperature Range {deltaC}
  23,                                     !- Humidity Indicating Conditions at Maximum Dry-Bulb
  31000,                                  !- Barometric Pressure {Pa}
  0,                                      !- Wind Speed {m/s}
  0,                                      !- Wind Direction {deg}
  0,                                      !- Sky Clearness
  ,                                       !- Rain Indicator
  0,                                      !- Snow Indicator
  1,                                      !- Day of Month
  1,                                      !- Month
  SummerDesignDay,                        !- Day Type
  0,                                      !- Daylight Saving Time Indicator
  WetBulb,                                !- Humidity Indicating Type
  ,                                       !- Humidity Indicating Day Schedule Name
  DefaultMultipliers,                     !- Dry-Bulb Temperature Range Modifier Type
  ,                                       !- Dry-Bulb Temperature Range Modifier Schedule Name
  AshraeClearSky;                         !- Solar Model Indicator

OS:SizingPeriod:DesignDay,
  {e5112312-98ee-43be-9675-ca41640b2143}, !- Handle
  Sizing Period Design Day 2,             !- Name
  23,                                     !- Maximum Dry-Bulb Temperature {C}
  0,                                      !- Daily Dry-Bulb Temperature Range {deltaC}
  23,                                     !- Humidity Indicating Conditions at Maximum Dry-Bulb
  31000,                                  !- Barometric Pressure {Pa}
  0,                                      !- Wind Speed {m/s}
  0,                                      !- Wind Direction {deg}
  0,                                      !- Sky Clearness
  ,                                       !- Rain Indicator
  0,                                      !- Snow Indicator
  1,                                      !- Day of Month
  1,                                      !- Month
  WinterDesignDay,                        !- Day Type
  0,                                      !- Daylight Saving Time Indicator
  WetBulb,                                !- Humidity Indicating Type
  ,                                       !- Humidity Indicating Day Schedule Name
  DefaultMultipliers,                     !- Dry-Bulb Temperature Range Modifier Type
  ,                                       !- Dry-Bulb Temperature Range Modifier Schedule Name
  AshraeClearSky;                         !- Solar Model Indicator

OS:Building,
  {4189157f-94a0-4cb0-a01c-d98caa677ea5}, !- Handle
  BESTEST Case HE100 - Base-case Building and Mechanical Systems, !- Name
  ,                                       !- Building Sector Type
  0,                                      !- North Axis {deg}
  ,                                       !- Nominal Floor to Floor Height {m}
  ,                                       !- Space Type Name
  ,                                       !- Default Construction Set Name
  ;                                       !- Default Schedule Set Name

OS:ThermalZone,
  {eabcb30e-f2d6-42d2-a813-d68f516dbe79}, !- Handle
  ZONE ONE,                               !- Name
  1,                                      !- Multiplier
  2.7,                                    !- Ceiling Height {m}
  129.6,                                  !- Volume {m3}
  ,                                       !- Floor Area {m2}
  ,                                       !- Zone Inside Convection Algorithm
  ,                                       !- Zone Outside Convection Algorithm
  ,                                       !- Zone Conditioning Equipment List Name
  {f3968031-f001-4838-b921-b41cbfa980c1}, !- Zone Air Inlet Port List
  {f8d4a13d-e31c-4f19-8d19-2f24ea424dda}, !- Zone Air Exhaust Port List
  {f2253634-967b-4f55-b6ed-eba4cfc3315a}, !- Zone Air Node Name
  {5f975a2c-046f-4403-b19b-d070bc6814f4}, !- Zone Return Air Node Name
  ,                                       !- Primary Daylighting Control Name
  ,                                       !- Fraction of Zone Controlled by Primary Daylighting Control
  ,                                       !- Secondary Daylighting Control Name
  ,                                       !- Fraction of Zone Controlled by Secondary Daylighting Control
  ,                                       !- Illuminance Map Name
  ,                                       !- Group Rendering Name
  {0c3ea234-a364-4017-8e3a-a1b9a57ed053}, !- Thermostat Name
  No,                                     !- Use Ideal Air Loads
  ;                                       !- Humidistat Name

OS:Node,
  {e885005f-9987-4b53-a232-6def29aeaab0}, !- Handle
  Node 1,                                 !- Name
  {f2253634-967b-4f55-b6ed-eba4cfc3315a}, !- Inlet Port
  ;                                       !- Outlet Port

OS:Connection,
  {f2253634-967b-4f55-b6ed-eba4cfc3315a}, !- Handle
  {9aa56b8e-3b56-490c-aa9b-277652806720}, !- Name
  {eabcb30e-f2d6-42d2-a813-d68f516dbe79}, !- Source Object
  11,                                     !- Outlet Port
  {e885005f-9987-4b53-a232-6def29aeaab0}, !- Target Object
  2;                                      !- Inlet Port

OS:PortList,
  {f3968031-f001-4838-b921-b41cbfa980c1}, !- Handle
  Port List 1,                            !- Name
  {eabcb30e-f2d6-42d2-a813-d68f516dbe79}, !- HVAC Component
  {4bb89c55-c86c-4b1d-a0cf-62e1706def37}; !- Port 1

OS:PortList,
  {f8d4a13d-e31c-4f19-8d19-2f24ea424dda}, !- Handle
  Port List 2,                            !- Name
  {eabcb30e-f2d6-42d2-a813-d68f516dbe79}; !- HVAC Component

OS:Sizing:Zone,
  {9c3ef69e-32d8-4bc8-a128-57040afb50ed}, !- Handle
  {eabcb30e-f2d6-42d2-a813-d68f516dbe79}, !- Zone or ZoneList Name
  SupplyAirTemperature,                   !- Zone Cooling Design Supply Air Temperature Input Method
  14,                                     !- Zone Cooling Design Supply Air Temperature {C}
  11.11,                                  !- Zone Cooling Design Supply Air Temperature Difference {deltaC}
  SupplyAirTemperature,                   !- Zone Heating Design Supply Air Temperature Input Method
  40,                                     !- Zone Heating Design Supply Air Temperature {C}
  11.11,                                  !- Zone Heating Design Supply Air Temperature Difference {deltaC}
  0.0085,                                 !- Zone Cooling Design Supply Air Humidity Ratio {kg-H2O/kg-air}
  0.008,                                  !- Zone Heating Design Supply Air Humidity Ratio {kg-H2O/kg-air}
  ,                                       !- Zone Heating Sizing Factor
  ,                                       !- Zone Cooling Sizing Factor
  DesignDay,                              !- Cooling Design Air Flow Method
  ,                                       !- Cooling Design Air Flow Rate {m3/s}
  ,                                       !- Cooling Minimum Air Flow per Zone Floor Area {m3/s-m2}
  ,                                       !- Cooling Minimum Air Flow {m3/s}
  ,                                       !- Cooling Minimum Air Flow Fraction
  DesignDay,                              !- Heating Design Air Flow Method
  ,                                       !- Heating Design Air Flow Rate {m3/s}
  ,                                       !- Heating Maximum Air Flow per Zone Floor Area {m3/s-m2}
  ,                                       !- Heating Maximum Air Flow {m3/s}
  ,                                       !- Heating Maximum Air Flow Fraction
  ,                                       !- Design Zone Air Distribution Effectiveness in Cooling Mode
  ,                                       !- Design Zone Air Distribution Effectiveness in Heating Mode
  No,                                     !- Account for Dedicated Outdoor Air System
  NeutralSupplyAir,                       !- Dedicated Outdoor Air System Control Strategy
  autosize,                               !- Dedicated Outdoor Air Low Setpoint Temperature for Design {C}
  autosize;                               !- Dedicated Outdoor Air High Setpoint Temperature for Design {C}

OS:ZoneHVAC:EquipmentList,
  {14fb5f0a-8409-4e73-8fcc-12ea0517bb7c}, !- Handle
  Zone HVAC Equipment List 1,             !- Name
  {eabcb30e-f2d6-42d2-a813-d68f516dbe79}, !- Thermal Zone
  {96385ab9-775b-481a-987b-56a60f168ba9}, !- Zone Equipment 1
  1,                                      !- Zone Equipment Cooling Sequence 1
  1;                                      !- Zone Equipment Heating or No-Load Sequence 1

OS:Space,
  {e483416e-4e5b-4eab-a90b-7c79b8ce8999}, !- Handle
  ZONE ONE Space,                         !- Name
  ,                                       !- Space Type Name
  ,                                       !- Default Construction Set Name
  ,                                       !- Default Schedule Set Name
  0,                                      !- Direction of Relative North {deg}
  0,                                      !- X Origin {m}
  0,                                      !- Y Origin {m}
  0,                                      !- Z Origin {m}
  ,                                       !- Building Story Name
  {eabcb30e-f2d6-42d2-a813-d68f516dbe79}; !- Thermal Zone Name

OS:Surface,
  {4607b1db-4928-45c9-87a5-b69408e06a37}, !- Handle
  ZONE SURFACE WEST,                      !- Name
  Wall,                                   !- Surface Type
  {1029568b-4563-4e3c-8100-c85448e2280e}, !- Construction Name
  {e483416e-4e5b-4eab-a90b-7c79b8ce8999}, !- Space Name
  Outdoors,                               !- Outside Boundary Condition
  ,                                       !- Outside Boundary Condition Object
  SunExposed,                             !- Sun Exposure
  WindExposed,                            !- Wind Exposure
  0,                                      !- View Factor to Ground
  ,                                       !- Number of Vertices
  0, 6, 2.7,                              !- X,Y,Z Vertex 1 {m}
  0, 6, 0,                                !- X,Y,Z Vertex 2 {m}
  0, 0, 0,                                !- X,Y,Z Vertex 3 {m}
  0, 0, 2.7;                              !- X,Y,Z Vertex 4 {m}

OS:Construction,
  {1029568b-4563-4e3c-8100-c85448e2280e}, !- Handle
  WALL-FLOOR,                             !- Name
  ,                                       !- Surface Rendering Name
  {a08985e0-f821-4b9e-8442-956c6d385e98}; !- Layer 1

OS:StandardsInformation:Construction,
  {519ffafb-969e-4b6d-8a61-447c2863f68e}, !- Handle
  {1029568b-4563-4e3c-8100-c85448e2280e}; !- Construction Name

OS:Material:NoMass,
  {a08985e0-f821-4b9e-8442-956c6d385e98}, !- Handle
  INSULATION-Wall-Floor,                  !- Name
  VerySmooth,                             !- Roughness
  100,                                    !- Thermal Resistance {m2-K/W}
  1e-07,                                  !- Thermal Absorptance
  0,                                      !- Solar Absorptance
  0;                                      !- Visible Absorptance

OS:StandardsInformation:Material,
  {e80982ee-cbb6-45e1-a298-d9d2e9dd8589}, !- Handle
  {a08985e0-f821-4b9e-8442-956c6d385e98}; !- Material Name

OS:Surface,
  {76084af1-fa78-41d8-b593-f2218cacef36}, !- Handle
  ZONE SURFACE ROOF,                      !- Name
  RoofCeiling,                            !- Surface Type
  {d5b51400-7d16-4b19-9eb0-14ffa5cc935a}, !- Construction Name
  {e483416e-4e5b-4eab-a90b-7c79b8ce8999}, !- Space Name
  Outdoors,                               !- Outside Boundary Condition
  ,                                       !- Outside Boundary Condition Object
  SunExposed,                             !- Sun Exposure
  WindExposed,                            !- Wind Exposure
  0,                                      !- View Factor to Ground
  ,                                       !- Number of Vertices
  8, 0, 2.7,                              !- X,Y,Z Vertex 1 {m}
  8, 6, 2.7,                              !- X,Y,Z Vertex 2 {m}
  0, 6, 2.7,                              !- X,Y,Z Vertex 3 {m}
  0, 0, 2.7;                              !- X,Y,Z Vertex 4 {m}

OS:Construction,
  {d5b51400-7d16-4b19-9eb0-14ffa5cc935a}, !- Handle
  ROOF,                                   !- Name
  ,                                       !- Surface Rendering Name
  {816062c8-3461-47d8-83cf-d15756a4f9e5}; !- Layer 1

OS:StandardsInformation:Construction,
  {1fcd4809-e2d2-4153-8bcd-1122108da7a2}, !- Handle
  {d5b51400-7d16-4b19-9eb0-14ffa5cc935a}; !- Construction Name

OS:Material:NoMass,
  {816062c8-3461-47d8-83cf-d15756a4f9e5}, !- Handle
  INSULATION-Roof,                        !- Name
  VerySmooth,                             !- Roughness
  0.14,                                   !- Thermal Resistance {m2-K/W}
  1e-07,                                  !- Thermal Absorptance
  0,                                      !- Solar Absorptance
  0;                                      !- Visible Absorptance

OS:StandardsInformation:Material,
  {e993439d-6584-41ab-9586-a43857af654b}, !- Handle
  {816062c8-3461-47d8-83cf-d15756a4f9e5}; !- Material Name

OS:Surface,
  {5877ee3e-cf3d-4aee-9e46-fb1acaed1fef}, !- Handle
  ZONE SURFACE FLOOR,                     !- Name
  Floor,                                  !- Surface Type
  {1029568b-4563-4e3c-8100-c85448e2280e}, !- Construction Name
  {e483416e-4e5b-4eab-a90b-7c79b8ce8999}, !- Space Name
  Outdoors,                               !- Outside Boundary Condition
  ,                                       !- Outside Boundary Condition Object
  SunExposed,                             !- Sun Exposure
  WindExposed,                            !- Wind Exposure
  0,                                      !- View Factor to Ground
  ,                                       !- Number of Vertices
  8, 6, 0,                                !- X,Y,Z Vertex 1 {m}
  8, 0, 0,                                !- X,Y,Z Vertex 2 {m}
  0, 0, 0,                                !- X,Y,Z Vertex 3 {m}
  0, 6, 0;                                !- X,Y,Z Vertex 4 {m}

OS:Surface,
  {91108917-6ced-4ef2-9e99-56472e36620d}, !- Handle
  ZONE SURFACE EAST,                      !- Name
  Wall,                                   !- Surface Type
  {1029568b-4563-4e3c-8100-c85448e2280e}, !- Construction Name
  {e483416e-4e5b-4eab-a90b-7c79b8ce8999}, !- Space Name
  Outdoors,                               !- Outside Boundary Condition
  ,                                       !- Outside Boundary Condition Object
  SunExposed,                             !- Sun Exposure
  WindExposed,                            !- Wind Exposure
  0,                                      !- View Factor to Ground
  ,                                       !- Number of Vertices
  8, 0, 2.7,                              !- X,Y,Z Vertex 1 {m}
  8, 0, 0,                                !- X,Y,Z Vertex 2 {m}
  8, 6, 0,                                !- X,Y,Z Vertex 3 {m}
  8, 6, 2.7;                              !- X,Y,Z Vertex 4 {m}

OS:Surface,
  {384c34be-2eb4-4d16-b623-0ed966942abf}, !- Handle
  ZONE SURFACE SOUTH,                     !- Name
  Wall,                                   !- Surface Type
  {1029568b-4563-4e3c-8100-c85448e2280e}, !- Construction Name
  {e483416e-4e5b-4eab-a90b-7c79b8ce8999}, !- Space Name
  Outdoors,                               !- Outside Boundary Condition
  ,                                       !- Outside Boundary Condition Object
  SunExposed,                             !- Sun Exposure
  WindExposed,                            !- Wind Exposure
  0,                                      !- View Factor to Ground
  ,                                       !- Number of Vertices
  0, 0, 2.7,                              !- X,Y,Z Vertex 1 {m}
  0, 0, 0,                                !- X,Y,Z Vertex 2 {m}
  8, 0, 0,                                !- X,Y,Z Vertex 3 {m}
  8, 0, 2.7;                              !- X,Y,Z Vertex 4 {m}

OS:Surface,
  {9894dc51-2b08-4e39-8db1-d68d7043f1c6}, !- Handle
  ZONE SURFACE NORTH,                     !- Name
  Wall,                                   !- Surface Type
  {1029568b-4563-4e3c-8100-c85448e2280e}, !- Construction Name
  {e483416e-4e5b-4eab-a90b-7c79b8ce8999}, !- Space Name
  Outdoors,                               !- Outside Boundary Condition
  ,                                       !- Outside Boundary Condition Object
  SunExposed,                             !- Sun Exposure
  WindExposed,                            !- Wind Exposure
  0,                                      !- View Factor to Ground
  ,                                       !- Number of Vertices
  8, 6, 2.7,                              !- X,Y,Z Vertex 1 {m}
  8, 6, 0,                                !- X,Y,Z Vertex 2 {m}
  0, 6, 0,                                !- X,Y,Z Vertex 3 {m}
  0, 6, 2.7;                              !- X,Y,Z Vertex 4 {m}

OS:SurfaceProperty:ConvectionCoefficients:MultipleSurface,
  {d93114f1-9aac-4845-ae4e-06b40750c90d}, !- Handle
  AllExteriorWalls,                       !- Surface Type
  Inside,                                 !- Convection Coefficient 1 Location
  Value,                                  !- Convection Coefficient 1 Type
  0.1,                                    !- Convection Coefficient 1 {W/m2-K}
  ,                                       !- Convection Coefficient 1 Schedule Name
  ,                                       !- Convection Coefficient 1 User Curve Name
  Outside,                                !- Convection Coefficient 2 Location
  Value,                                  !- Convection Coefficient 2 Type
  1e-07;                                  !- Convection Coefficient 2 {W/m2-K}

OS:SurfaceProperty:ConvectionCoefficients:MultipleSurface,
  {2d9a5155-b174-4f22-838a-2fee893af2e2}, !- Handle
  AllExteriorRoofs,                       !- Surface Type
  Inside,                                 !- Convection Coefficient 1 Location
  Value,                                  !- Convection Coefficient 1 Type
  20,                                     !- Convection Coefficient 1 {W/m2-K}
  ,                                       !- Convection Coefficient 1 Schedule Name
  ,                                       !- Convection Coefficient 1 User Curve Name
  Outside,                                !- Convection Coefficient 2 Location
  Value,                                  !- Convection Coefficient 2 Type
  20;                                     !- Convection Coefficient 2 {W/m2-K}

OS:Schedule:Ruleset,
  {8da8cf9c-1ccf-4813-b12c-71151ad3336b}, !- Handle
  No Cooling,                             !- Name
  {05169f48-f8b8-4096-b647-cb8aa7b83f4f}, !- Schedule Type Limits Name
  {83bd18ef-bf25-43dc-b958-cdec5deef064}; !- Default Day Schedule Name

OS:ScheduleTypeLimits,
  {05169f48-f8b8-4096-b647-cb8aa7b83f4f}, !- Handle
  Temperature,                            !- Name
  ,                                       !- Lower Limit Value
  ,                                       !- Upper Limit Value
  Continuous,                             !- Numeric Type
  Temperature;                            !- Unit Type

OS:Schedule:Day,
  {83bd18ef-bf25-43dc-b958-cdec5deef064}, !- Handle
  Schedule Day 5,                         !- Name
  {05169f48-f8b8-4096-b647-cb8aa7b83f4f}, !- Schedule Type Limits Name
  ,                                       !- Interpolate to Timestep
  24,                                     !- Hour 1
  0,                                      !- Minute 1
  100;                                    !- Value Until Time 1

OS:Schedule:Constant,
  {a8e0db93-a13b-47ed-b0e0-52c97a2bda0d}, !- Handle
  20.0 C,                                 !- Name
  {05169f48-f8b8-4096-b647-cb8aa7b83f4f}, !- Schedule Type Limits Name
  20;                                     !- Value

OS:ThermostatSetpoint:DualSetpoint,
  {0c3ea234-a364-4017-8e3a-a1b9a57ed053}, !- Handle
  Thermostat Setpoint Dual Setpoint 1,    !- Name
  {a8e0db93-a13b-47ed-b0e0-52c97a2bda0d}, !- Heating Setpoint Temperature Schedule Name
  {8da8cf9c-1ccf-4813-b12c-71151ad3336b}; !- Cooling Setpoint Temperature Schedule Name

OS:Schedule:Constant,
  {8d8655b6-d8e6-4e1a-a8f7-58c44e3ce284}, !- Handle
  Always On Discrete,                     !- Name
  {231ce2b5-e708-492b-8082-649b8b8317c2}, !- Schedule Type Limits Name
  1;                                      !- Value

OS:ScheduleTypeLimits,
  {231ce2b5-e708-492b-8082-649b8b8317c2}, !- Handle
  OnOff,                                  !- Name
  0,                                      !- Lower Limit Value
  1,                                      !- Upper Limit Value
  Discrete,                               !- Numeric Type
  Availability;                           !- Unit Type

OS:AirLoopHVAC,
  {131fab47-fd46-467f-ae7a-24e7ac3a92d3}, !- Handle
  BESTEST HE air loop,                    !- Name
  ,                                       !- Controller List Name
  {8d8655b6-d8e6-4e1a-a8f7-58c44e3ce284}, !- Availability Schedule
  ,                                       !- Availability Manager
  0.355,                                  !- Design Supply Air Flow Rate {m3/s}
  ,                                       !- Branch List Name
  ,                                       !- Connector List Name
  {ad6ac293-8a5c-4a2e-ada3-a2af038c262f}, !- Supply Side Inlet Node Name
  {59d81075-423e-4176-85c8-4528dde58dea}, !- Demand Side Outlet Node Name
  {65a950dd-9f50-4d76-b9e6-6b23a3e3ec11}, !- Demand Side Inlet Node A
  {349325c0-1690-4eb5-9c27-7d760bc6a554}, !- Supply Side Outlet Node A
  ,                                       !- Demand Side Inlet Node B
  ;                                       !- Supply Side Outlet Node B

OS:Node,
  {053082dc-8856-46fe-be8e-76efc644141f}, !- Handle
  Node 2,                                 !- Name
  {ad6ac293-8a5c-4a2e-ada3-a2af038c262f}, !- Inlet Port
  {0a25147c-c649-4476-b4b1-2602f1f85196}; !- Outlet Port

OS:Node,
  {80492d34-9631-4a8e-b2a8-50a15c17869a}, !- Handle
  Node 3,                                 !- Name
  {128d13e3-79f7-494f-bd20-c49213d6bbbd}, !- Inlet Port
  {349325c0-1690-4eb5-9c27-7d760bc6a554}; !- Outlet Port

OS:Connection,
  {ad6ac293-8a5c-4a2e-ada3-a2af038c262f}, !- Handle
  {d2febec8-b39a-415e-a7ee-99b14e4a2086}, !- Name
  {131fab47-fd46-467f-ae7a-24e7ac3a92d3}, !- Source Object
  8,                                      !- Outlet Port
  {053082dc-8856-46fe-be8e-76efc644141f}, !- Target Object
  2;                                      !- Inlet Port

OS:Connection,
  {349325c0-1690-4eb5-9c27-7d760bc6a554}, !- Handle
  {5f20b03d-91bb-41f4-9ad5-bb42456cfd7d}, !- Name
  {80492d34-9631-4a8e-b2a8-50a15c17869a}, !- Source Object
  3,                                      !- Outlet Port
  {131fab47-fd46-467f-ae7a-24e7ac3a92d3}, !- Target Object
  11;                                     !- Inlet Port

OS:Node,
  {a0bd63bf-8139-43a2-be80-6f4ddfb025c7}, !- Handle
  Node 4,                                 !- Name
  {65a950dd-9f50-4d76-b9e6-6b23a3e3ec11}, !- Inlet Port
  {834f3b11-611e-4268-9854-11be1ec1bb78}; !- Outlet Port

OS:Node,
  {439354b7-e5ad-401b-a3b5-503afad2db67}, !- Handle
  Node 5,                                 !- Name
  {d840e194-28b1-429b-b5da-f5c09f5d1fd4}, !- Inlet Port
  {59d81075-423e-4176-85c8-4528dde58dea}; !- Outlet Port

OS:Node,
  {335eea9c-ce69-4d81-8901-8806e6a4afa9}, !- Handle
  Node 6,                                 !- Name
  {1f818202-0dca-4be3-8280-9ceb1797436f}, !- Inlet Port
  {4bb89c55-c86c-4b1d-a0cf-62e1706def37}; !- Outlet Port

OS:Connection,
  {65a950dd-9f50-4d76-b9e6-6b23a3e3ec11}, !- Handle
  {0d5681f3-b8ad-4b2c-8d76-f456c32b6939}, !- Name