
OS:Version,
  {58139fda-90e8-4748-b33b-ee1025e3908b}, !- Handle
  1.13.1;                                 !- Version Identifier

OS:Site,
  {bc874655-a927-4872-a278-1347186bb1d9}, !- Handle
  MIAMI_FL_USA,                           !- Name
  25.8,                                   !- Latitude {deg}
  -80.27,                                 !- Longitude {deg}
  -5,                                     !- Time Zone {hr}
  2,                                      !- Elevation {m}
  Country;                                !- Terrain

OS:YearDescription,
  {9116ce1c-534f-4b3a-9d15-2bb1a805c7e1}, !- Handle
  2008,                                   !- Calendar Year
  ,                                       !- Day of Week for Start Day
  ;                                       !- Is Leap Year

OS:ClimateZones,
  {dd268d6b-2da7-4abc-b8ad-35d0988c56cd}, !- Handle
  ,                                       !- Active Institution
  ,                                       !- Active Year
  ASHRAE,                                 !- Climate Zone Institution Name 1
  ANSI/ASHRAE Standard 169,               !- Climate Zone Document Name 1
  2006,                                   !- Climate Zone Document Year 1
  ,                                       !- Climate Zone Value 1
  CEC,                                    !- Climate Zone Institution Name 2
  California Climate Zone Descriptions,   !- Climate Zone Document Name 2
  1995,                                   !- Climate Zone Document Year 2
  ;                                       !- Climate Zone Value 2

OS:Facility,
  {01cd2b0a-8ee0-4ab6-a2fb-9f6c7d21094d}; !- Handle

OS:SimulationControl,
  {30e9303f-ed23-491c-b310-8ef7274e967f}, !- Handle
  ,                                       !- Do Zone Sizing Calculation
  ,                                       !- Do System Sizing Calculation
  ,                                       !- Do Plant Sizing Calculation
  No,                                     !- Run Simulation for Sizing Periods
  ,                                       !- Run Simulation for Weather File Run Periods
  ,                                       !- Loads Convergence Tolerance Value
  ,                                       !- Temperature Convergence Tolerance Value {deltaC}
  FullInteriorAndExterior,                !- Solar Distribution
  ,                                       !- Maximum Number of Warmup Days
  6;                                      !- Minimum Number of Warmup Days

OS:Sizing:Parameters,
  {c983733e-8a2d-428d-8380-a9c380f3d01c}, !- Handle
  1.25,                                   !- Heating Sizing Factor
  1.15;                                   !- Cooling Sizing Factor

OS:Timestep,
  {7a470c9d-4813-47b4-b276-325100b7b62f}, !- Handle
  4;                                      !- Number of Timesteps per Hour

OS:ShadowCalculation,
  {21696cf9-7a12-43bf-ac4c-50d1be8bf2fd}, !- Handle
  20,                                     !- Calculation Frequency
  15000;                                  !- Maximum Figures in Shadow Overlap Calculations

OS:HeatBalanceAlgorithm,
  {09f4a614-27ba-43a9-a0ac-4379e03c44e8}, !- Handle
  ConductionTransferFunction,             !- Algorithm
  200;                                    !- Surface Temperature Upper Limit {C}

OS:RunPeriod,
  {322b0b21-e55e-459f-b4f2-853d2d37fd9a}, !- Handle
  Run Period 1,                           !- Name
  1,                                      !- Begin Month
  1,                                      !- Begin Day of Month
  12,                                     !- End Month
  31,                                     !- End Day of Month
  ,                                       !- Use Weather File Holidays and Special Days
  ,                                       !- Use Weather File Daylight Saving Period
  ,                                       !- Apply Weekend Holiday Rule
  ,                                       !- Use Weather File Rain Indicators
  ,                                       !- Use Weather File Snow Indicators
  ;                                       !- Number of Times Runperiod to be Repeated

OS:LifeCycleCost:Parameters,
  {a8ce31c8-7533-4ad7-aa7a-5380b4197455}, !- Handle
  ,                                       !- Analysis Type
  ,                                       !- Discounting Convention
  ,                                       !- Inflation Approach
  ,                                       !- Real Discount Rate
  ,                                       !- Nominal Discount Rate
  ,                                       !- Inflation
  ,                                       !- Base Date Month
  ,                                       !- Base Date Year
  ,                                       !- Service Date Month
  ,                                       !- Service Date Year
  ;                                       !- Length of Study Period in Years

OS:SurfaceConvectionAlgorithm:Inside,
  {e3249b28-7490-4e7d-8ade-9346b112ed8c}, !- Handle
  TARP;                                   !- Algorithm

OS:SurfaceConvectionAlgorithm:Outside,
  {d3f495e7-05db-4074-b406-30b5386ef16a}, !- Handle
  TARP;                                   !- Algorithm

OS:WeatherFile,
  {36fc90db-bd90-4dc7-88d6-786dec977547}, !- Handle
  MIAMI,                                  !- City
  FL,                                     !- State Province Region
  USA,                                    !- Country
  TMY2-12839,                             !- Data Source
  722020,                                 !- WMO Number
  25.8,                                   !- Latitude {deg}
  -80.27,                                 !- Longitude {deg}
  -5,                                     !- Time Zone {hr}
  2,                                      !- Elevation {m}
  file:///Users/dgoldwas/Documents/GitHub/OSEP_BESTTEST/measures/bestest_space_cooling_equipment_performance_tests/resources/CE100ATM2.epw, !- Url
  5F480EBD;                               !- Checksum

OS:SizingPeriod:DesignDay,
  {5a29c287-a38c-42cd-ad51-a2a70f8cd037}, !- Handle
  Sizing Period Design Day 1,             !- Name
  23,                                     !- Maximum Dry-Bulb Temperature {C}
  0,                                      !- Daily Dry-Bulb Temperature Range {deltaC}
  23,                                     !- Humidity Indicating Conditions at Maximum Dry-Bulb
  31000,                                  !- Barometric Pressure {Pa}
  0,                                      !- Wind Speed {m/s}
  0,                                      !- Wind Direction {deg}
  0,                                      !- Sky Clearness
  ,                                       !- Rain Indicator
  0,                                      !- Snow Indicator
  1,                                      !- Day of Month
  1,                                      !- Month
  SummerDesignDay,                        !- Day Type
  0,                                      !- Daylight Saving Time Indicator
  WetBulb,                                !- Humidity Indicating Type
  ,                                       !- Humidity Indicating Day Schedule Name
  DefaultMultipliers,                     !- Dry-Bulb Temperature Range Modifier Type
  ,                                       !- Dry-Bulb Temperature Range Modifier Schedule Name
  AshraeClearSky;                         !- Solar Model Indicator

OS:SizingPeriod:DesignDay,
  {8c6689b3-0deb-481b-8da4-c880ff374823}, !- Handle
  Sizing Period Design Day 2,             !- Name
  23,                                     !- Maximum Dry-Bulb Temperature {C}
  0,                                      !- Daily Dry-Bulb Temperature Range {deltaC}
  23,                                     !- Humidity Indicating Conditions at Maximum Dry-Bulb
  31000,                                  !- Barometric Pressure {Pa}
  0,                                      !- Wind Speed {m/s}
  0,                                      !- Wind Direction {deg}
  0,                                      !- Sky Clearness
  ,                                       !- Rain Indicator
  0,                                      !- Snow Indicator
  1,                                      !- Day of Month
  1,                                      !- Month
  WinterDesignDay,                        !- Day Type
  0,                                      !- Daylight Saving Time Indicator
  WetBulb,                                !- Humidity Indicating Type
  ,                                       !- Humidity Indicating Day Schedule Name
  DefaultMultipliers,                     !- Dry-Bulb Temperature Range Modifier Type
  ,                                       !- Dry-Bulb Temperature Range Modifier Schedule Name
  AshraeClearSky;                         !- Solar Model Indicator

OS:Building,
  {59965e45-cb70-4af8-95d6-7fd996ca2531}, !- Handle
  BESTEST Case CE100 - Base-Case Building and Mechanical System, !- Name
  ,                                       !- Building Sector Type
  0,                                      !- North Axis {deg}
  ,                                       !- Nominal Floor to Floor Height {m}
  ,                                       !- Space Type Name
  ,                                       !- Default Construction Set Name
  ;                                       !- Default Schedule Set Name

OS:ThermalZone,
  {eeed91e2-d274-4854-9ebd-9470d5d3e646}, !- Handle
  ZONE ONE,                               !- Name
  1,                                      !- Multiplier
  2.7,                                    !- Ceiling Height {m}
  129.6,                                  !- Volume {m3}
  ,                                       !- Floor Area {m2}
  ,                                       !- Zone Inside Convection Algorithm
  ,                                       !- Zone Outside Convection Algorithm
  ,                                       !- Zone Conditioning Equipment List Name
  {eba535e9-ab39-45d6-a4b9-e2689c893f53}, !- Zone Air Inlet Port List
  {713978d7-dab8-4574-9e52-73bed50ad5fa}, !- Zone Air Exhaust Port List
  {b8b38c41-c126-4397-a530-d7ce8affa068}, !- Zone Air Node Name
  {aded6061-b3cc-4ed5-9ee3-dc869f225c71}, !- Zone Return Air Node Name
  ,                                       !- Primary Daylighting Control Name
  ,                                       !- Fraction of Zone Controlled by Primary Daylighting Control
  ,                                       !- Secondary Daylighting Control Name
  ,                                       !- Fraction of Zone Controlled by Secondary Daylighting Control
  ,                                       !- Illuminance Map Name
  ,                                       !- Group Rendering Name
  {89537c13-3eb9-457d-90c8-171bb83b097c}, !- Thermostat Name
  No,                                     !- Use Ideal Air Loads
  ;                                       !- Humidistat Name

OS:Node,
  {92679278-2f02-4335-97c9-1ddad24fcf5a}, !- Handle
  Node 1,                                 !- Name
  {b8b38c41-c126-4397-a530-d7ce8affa068}, !- Inlet Port
  ;                                       !- Outlet Port

OS:Connection,
  {b8b38c41-c126-4397-a530-d7ce8affa068}, !- Handle
  {d536bc9f-c0fc-4afb-a59f-fd234e576afd}, !- Name
  {eeed91e2-d274-4854-9ebd-9470d5d3e646}, !- Source Object
  11,                                     !- Outlet Port
  {92679278-2f02-4335-97c9-1ddad24fcf5a}, !- Target Object
  2;                                      !- Inlet Port

OS:PortList,
  {eba535e9-ab39-45d6-a4b9-e2689c893f53}, !- Handle
  Port List 1,                            !- Name
  {eeed91e2-d274-4854-9ebd-9470d5d3e646}, !- HVAC Component
  {f7c1263d-9d70-4a52-a724-d0ea48c2a802}; !- Port 1

OS:PortList,
  {713978d7-dab8-4574-9e52-73bed50ad5fa}, !- Handle
  Port List 2,                            !- Name
  {eeed91e2-d274-4854-9ebd-9470d5d3e646}; !- HVAC Component

OS:Sizing:Zone,
  {d9e84c97-f588-4396-9566-b6800264a2ae}, !- Handle
  {eeed91e2-d274-4854-9ebd-9470d5d3e646}, !- Zone or ZoneList Name
  SupplyAirTemperature,                   !- Zone Cooling Design Supply Air Temperature Input Method
  14,                                     !- Zone Cooling Design Supply Air Temperature {C}
  11.11,                                  !- Zone Cooling Design Supply Air Temperature Difference {deltaC}
  SupplyAirTemperature,                   !- Zone Heating Design Supply Air Temperature Input Method
  40,                                     !- Zone Heating Design Supply Air Temperature {C}
  11.11,                                  !- Zone Heating Design Supply Air Temperature Difference {deltaC}
  0.0085,                                 !- Zone Cooling Design Supply Air Humidity Ratio {kg-H2O/kg-air}
  0.008,                                  !- Zone Heating Design Supply Air Humidity Ratio {kg-H2O/kg-air}
  ,                                       !- Zone Heating Sizing Factor
  ,                                       !- Zone Cooling Sizing Factor
  DesignDay,                              !- Cooling Design Air Flow Method
  ,                                       !- Cooling Design Air Flow Rate {m3/s}
  ,                                       !- Cooling Minimum Air Flow per Zone Floor Area {m3/s-m2}
  ,                                       !- Cooling Minimum Air Flow {m3/s}
  ,                                       !- Cooling Minimum Air Flow Fraction
  DesignDay,                              !- Heating Design Air Flow Method
  ,                                       !- Heating Design Air Flow Rate {m3/s}
  ,                                       !- Heating Maximum Air Flow per Zone Floor Area {m3/s-m2}
  ,                                       !- Heating Maximum Air Flow {m3/s}
  ,                                       !- Heating Maximum Air Flow Fraction
  ,                                       !- Design Zone Air Distribution Effectiveness in Cooling Mode
  ,                                       !- Design Zone Air Distribution Effectiveness in Heating Mode
  No,                                     !- Account for Dedicated Outdoor Air System
  NeutralSupplyAir,                       !- Dedicated Outdoor Air System Control Strategy
  autosize,                               !- Dedicated Outdoor Air Low Setpoint Temperature for Design {C}
  autosize;                               !- Dedicated Outdoor Air High Setpoint Temperature for Design {C}

OS:ZoneHVAC:EquipmentList,
  {4542ec1d-6e0e-4a17-8ce7-20408074fd20}, !- Handle
  Zone HVAC Equipment List 1,             !- Name
  {eeed91e2-d274-4854-9ebd-9470d5d3e646}, !- Thermal Zone
  {d52b19c4-4c2b-4134-82b7-6e526c714683}, !- Zone Equipment 1
  1,                                      !- Zone Equipment Cooling Sequence 1
  1;                                      !- Zone Equipment Heating or No-Load Sequence 1

OS:Space,
  {47fe52d4-c671-4906-8488-0fae21ca1662}, !- Handle
  ZONE ONE Space,                         !- Name
  ,                                       !- Space Type Name
  ,                                       !- Default Construction Set Name
  ,                                       !- Default Schedule Set Name
  0,                                      !- Direction of Relative North {deg}
  0,                                      !- X Origin {m}
  0,                                      !- Y Origin {m}
  0,                                      !- Z Origin {m}
  ,                                       !- Building Story Name
  {eeed91e2-d274-4854-9ebd-9470d5d3e646}; !- Thermal Zone Name

OS:Surface,
  {1781a425-aeb0-4e3b-b0e4-7ac7033069b9}, !- Handle
  ZONE SURFACE FLOOR,                     !- Name
  Floor,                                  !- Surface Type
  {e966737e-56c2-4bc5-a489-c5f6eb9bfe4e}, !- Construction Name
  {47fe52d4-c671-4906-8488-0fae21ca1662}, !- Space Name
  Outdoors,                               !- Outside Boundary Condition
  ,                                       !- Outside Boundary Condition Object
  SunExposed,                             !- Sun Exposure
  WindExposed,                            !- Wind Exposure
  0,                                      !- View Factor to Ground
  ,                                       !- Number of Vertices
  8, 6, 0,                                !- X,Y,Z Vertex 1 {m}
  8, 0, 0,                                !- X,Y,Z Vertex 2 {m}
  0, 0, 0,                                !- X,Y,Z Vertex 3 {m}
  0, 6, 0;                                !- X,Y,Z Vertex 4 {m}

OS:Construction,
  {e966737e-56c2-4bc5-a489-c5f6eb9bfe4e}, !- Handle
  LTWALL,                                 !- Name
  ,                                       !- Surface Rendering Name
  {dd252ef0-d2e0-4a6a-881e-5b4238ffaa5b}, !- Layer 1
  {4b2e9117-1c7e-4b72-b8d4-403879870d66}; !- Layer 2

OS:Material:NoMass,
  {dd252ef0-d2e0-4a6a-881e-5b4238ffaa5b}, !- Handle
  INSULATION-EXT,                         !- Name
  VerySmooth,                             !- Roughness
  50,                                     !- Thermal Resistance {m2-K/W}
  0.9,                                    !- Thermal Absorptance
  0.1,                                    !- Solar Absorptance
  0.1;                                    !- Visible Absorptance

OS:Material:NoMass,
  {4b2e9117-1c7e-4b72-b8d4-403879870d66}, !- Handle
  INSULATION-INT,                         !- Name
  VerySmooth,                             !- Roughness
  50,                                     !- Thermal Resistance {m2-K/W}
  0.9,                                    !- Thermal Absorptance
  0.6,                                    !- Solar Absorptance
  0.6;                                    !- Visible Absorptance

OS:Surface,
  {b5d2cac6-3998-42b5-a66a-a78efbf0ad3c}, !- Handle
  ZONE SURFACE SOUTH,                     !- Name
  Wall,                                   !- Surface Type
  {e966737e-56c2-4bc5-a489-c5f6eb9bfe4e}, !- Construction Name
  {47fe52d4-c671-4906-8488-0fae21ca1662}, !- Space Name
  Outdoors,                               !- Outside Boundary Condition
  ,                                       !- Outside Boundary Condition Object
  SunExposed,                             !- Sun Exposure
  WindExposed,                            !- Wind Exposure
  0.5,                                    !- View Factor to Ground
  ,                                       !- Number of Vertices
  0, 0, 2.7,                              !- X,Y,Z Vertex 1 {m}
  0, 0, 0,                                !- X,Y,Z Vertex 2 {m}
  8, 0, 0,                                !- X,Y,Z Vertex 3 {m}
  8, 0, 2.7;                              !- X,Y,Z Vertex 4 {m}

OS:Surface,
  {78e65d0a-d976-42d7-8ad9-0398bfb7646f}, !- Handle
  ZONE SURFACE WEST,                      !- Name
  Wall,                                   !- Surface Type
  {e966737e-56c2-4bc5-a489-c5f6eb9bfe4e}, !- Construction Name
  {47fe52d4-c671-4906-8488-0fae21ca1662}, !- Space Name
  Outdoors,                               !- Outside Boundary Condition
  ,                                       !- Outside Boundary Condition Object
  SunExposed,                             !- Sun Exposure
  WindExposed,                            !- Wind Exposure
  0.5,                                    !- View Factor to Ground
  ,                                       !- Number of Vertices
  0, 6, 2.7,                              !- X,Y,Z Vertex 1 {m}
  0, 6, 0,                                !- X,Y,Z Vertex 2 {m}
  0, 0, 0,                                !- X,Y,Z Vertex 3 {m}
  0, 0, 2.7;                              !- X,Y,Z Vertex 4 {m}

OS:Surface,
  {f1417eae-bdd7-4c47-b926-f54f92404388}, !- Handle
  ZONE SURFACE NORTH,                     !- Name
  Wall,                                   !- Surface Type
  {e966737e-56c2-4bc5-a489-c5f6eb9bfe4e}, !- Construction Name
  {47fe52d4-c671-4906-8488-0fae21ca1662}, !- Space Name
  Outdoors,                               !- Outside Boundary Condition
  ,                                       !- Outside Boundary Condition Object
  SunExposed,                             !- Sun Exposure
  WindExposed,                            !- Wind Exposure
  0.5,                                    !- View Factor to Ground
  ,                                       !- Number of Vertices
  8, 6, 2.7,                              !- X,Y,Z Vertex 1 {m}
  8, 6, 0,                                !- X,Y,Z Vertex 2 {m}
  0, 6, 0,                                !- X,Y,Z Vertex 3 {m}
  0, 6, 2.7;                              !- X,Y,Z Vertex 4 {m}

OS:Surface,
  {a65be822-5ce6-4637-95ac-c8aa6c9bcdeb}, !- Handle
  ZONE SURFACE ROOF,                      !- Name
  RoofCeiling,                            !- Surface Type
  {e966737e-56c2-4bc5-a489-c5f6eb9bfe4e}, !- Construction Name
  {47fe52d4-c671-4906-8488-0fae21ca1662}, !- Space Name
  Outdoors,                               !- Outside Boundary Condition
  ,                                       !- Outside Boundary Condition Object
  SunExposed,                             !- Sun Exposure
  WindExposed,                            !- Wind Exposure
  0,                                      !- View Factor to Ground
  ,                                       !- Number of Vertices
  8, 0, 2.7,                              !- X,Y,Z Vertex 1 {m}
  8, 6, 2.7,                              !- X,Y,Z Vertex 2 {m}
  0, 6, 2.7,                              !- X,Y,Z Vertex 3 {m}
  0, 0, 2.7;                              !- X,Y,Z Vertex 4 {m}

OS:Surface,
  {01f09984-7022-46a5-bbd3-592847a88ad5}, !- Handle
  ZONE SURFACE EAST,                      !- Name
  Wall,                                   !- Surface Type
  {e966737e-56c2-4bc5-a489-c5f6eb9bfe4e}, !- Construction Name
  {47fe52d4-c671-4906-8488-0fae21ca1662}, !- Space Name
  Outdoors,                               !- Outside Boundary Condition
  ,                                       !- Outside Boundary Condition Object
  SunExposed,                             !- Sun Exposure
  WindExposed,                            !- Wind Exposure
  0.5,                                    !- View Factor to Ground
  ,                                       !- Number of Vertices
  8, 0, 2.7,                              !- X,Y,Z Vertex 1 {m}
  8, 0, 0,                                !- X,Y,Z Vertex 2 {m}
  8, 6, 0,                                !- X,Y,Z Vertex 3 {m}
  8, 6, 2.7;                              !- X,Y,Z Vertex 4 {m}

OS:OtherEquipment,
  {bac2133e-1c95-4bb5-8277-e338c3daa6b0}, !- Handle
  CE_sens_generic_inst,                   !- Name
  {cc89ad2f-3b7c-4423-bc4c-2744b42bb492}, !- Other Equipment Definition Name
  {47fe52d4-c671-4906-8488-0fae21ca1662}, !- Space or SpaceType Name
  {8221a646-c630-4d89-b658-cb823a1c78f8}; !- Schedule Name

OS:OtherEquipment:Definition,
  {cc89ad2f-3b7c-4423-bc4c-2744b42bb492}, !- Handle
  CE_sens_generic,                        !- Name
  EquipmentLevel,                         !- Design Level Calculation Method
  5400,                                   !- Design Level {W}
  ,                                       !- Watts per Space Floor Area {W/m2}
  ;                                       !- Watts per Person {W/Person}

OS:Schedule:Ruleset,
  {8221a646-c630-4d89-b658-cb823a1c78f8}, !- Handle
  Always On Ruleset Fractional,           !- Name
  {860dcc73-04cc-4f08-9f50-ba0ef26f35df}, !- Schedule Type Limits Name
  {718b7c74-4a86-42e4-804d-ae750a201640}; !- Default Day Schedule Name

OS:Schedule:Day,
  {718b7c74-4a86-42e4-804d-ae750a201640}, !- Handle
  Schedule Day 6,                         !- Name
  {860dcc73-04cc-4f08-9f50-ba0ef26f35df}, !- Schedule Type Limits Name
  ,                                       !- Interpolate to Timestep
  24,                                     !- Hour 1
  0,                                      !- Minute 1
  1;                                      !- Value Until Time 1

OS:ScheduleTypeLimits,
  {860dcc73-04cc-4f08-9f50-ba0ef26f35df}, !- Handle
  Fractional,                             !- Name
  0,                                      !- Lower Limit Value
  1,                                      !- Upper Limit Value
  Continuous;                             !- Numeric Type

OS:OtherEquipment,
  {a0ec26a3-c9fe-4283-b91b-6664d8dd038c}, !- Handle
  CE_lat_generic_inst,                    !- Name
  {7cf36662-f916-4df6-9c61-deacb75ec6d7}, !- Other Equipment Definition Name
  {47fe52d4-c671-4906-8488-0fae21ca1662}, !- Space or SpaceType Name
  {8221a646-c630-4d89-b658-cb823a1c78f8}; !- Schedule Name

OS:OtherEquipment:Definition,
  {7cf36662-f916-4df6-9c61-deacb75ec6d7}, !- Handle
  CE_lat_generic,                         !- Name
  EquipmentLevel,                         !- Design Level Calculation Method
  0,                                      !- Design Level {W}
  ,                                       !- Watts per Space Floor Area {W/m2}
  ,                                       !- Watts per Person {W/Person}
  1,                                      !- Fraction Latent
  0;                                      !- Fraction Radiant

OS:Schedule:Constant,
  {e918c699-07b0-43c4-ab07-cda6051720ba}, !- Handle
  22.2 C,                                 !- Name
  {98ecd864-befa-4987-8d4c-2e59fd8bd214}, !- Schedule Type Limits Name
  22.2;                                   !- Value

OS:Schedule:Ruleset,
  {ff9327f5-29d3-4595-8c8c-82e4ea6c1894}, !- Handle
  No Heating,                             !- Name
  {98ecd864-befa-4987-8d4c-2e59fd8bd214}, !- Schedule Type Limits Name
  {01ec82aa-835c-4849-be9c-73fbc27a7f0c}; !- Default Day Schedule Name

OS:ScheduleTypeLimits,
  {98ecd864-befa-4987-8d4c-2e59fd8bd214}, !- Handle
  Temperature,                            !- Name
  ,                                       !- Lower Limit Value
  ,                                       !- Upper Limit Value
  Continuous,                             !- Numeric Type
  Temperature;                            !- Unit Type

OS:Schedule:Day,
  {01ec82aa-835c-4849-be9c-73fbc27a7f0c}, !- Handle
  Schedule Day 2,                         !- Name
  {98ecd864-befa-4987-8d4c-2e59fd8bd214}, !- Schedule Type Limits Name
  ,                                       !- Interpolate to Timestep
  24,                                     !- Hour 1
  0,                                      !- Minute 1
  -100;                                   !- Value Until Time 1

OS:ThermostatSetpoint:DualSetpoint,
  {89537c13-3eb9-457d-90c8-171bb83b097c}, !- Handle
  Thermostat Setpoint Dual Setpoint 1,    !- Name
  {ff9327f5-29d3-4595-8c8c-82e4ea6c1894}, !- Heating Setpoint Temperature Schedule Name
  {e918c699-07b0-43c4-ab07-cda6051720ba}; !- Cooling Setpoint Temperature Schedule Name

OS:Schedule:Constant,
  {63d2c2ea-b73b-474e-9115-35c7209095b5}, !- Handle
  Always On Discrete,                     !- Name
  {63f53698-72bc-4fef-b9f4-dea5b36437d8}, !- Schedule Type Limits Name
  1;                                      !- Value

OS:ScheduleTypeLimits,
  {63f53698-72bc-4fef-b9f4-dea5b36437d8}, !- Handle
  OnOff,                                  !- Name
  0,                                      !- Lower Limit Value
  1,                                      !- Upper Limit Value
  Discrete,                               !- Numeric Type
  Availability;                           !- Unit Type

OS:Schedule:Constant,
  {b667785d-d35a-4855-9c55-e7f9e21c0abb}, !- Handle
  Always Off Discrete,                    !- Name
  {f8aa1599-5fc5-44e6-9764-789f0ea946e7}, !- Schedule Type Limits Name
  0;                                      !- Value

OS:ScheduleTypeLimits,
  {f8aa1599-5fc5-44e6-9764-789f0ea946e7}, !- Handle
  OnOff 1,                                !- Name
  0,                                      !- Lower Limit Value
  1,                                      !- Upper Limit Value
  Discrete,                               !- Numeric Type
  Availability;                           !- Unit Type

OS:AirLoopHVAC,
  {b5327634-7520-457f-8513-de2bde352041}, !- Handle
  BESTEST CE air loop,                    !- Name
  ,                                       !- Controller List Name
  {63d2c2ea-b73b-474e-9115-35c7209095b5}, !- Availability Schedule
  ,                                       !- Availability Manager
  0.425,                                  !- Design Supply Air Flow Rate {m3/s}
  ,                                       !- Branch List Name
  ,                                       !- Connector List Name
  {d6b4aabb-16d3-428f-8664-8da050ab3cd1}, !- Supply Side Inlet Node Name
  {d788c78b-c319-4009-8ef0-8171d26e4d16}, !- Demand Side Outlet Node Name
  {84bb1076-bca7-493e-8523-434367dd6720}, !- Demand Side Inlet Node A
  {f8e2ab09-6635-42da-b44b-160e24e02fff}, !- Supply Side Outlet Node A
  ,                                       !- Demand Side Inlet Node B
  ;                                       !- Supply Side Outlet Node B

OS:Node,
  {f0395050-57d4-48ca-b843-1be1ade78ed6}, !- Handle
  Node 2,                                 !- Name
  {d6b4aabb-16d3-428f-8664-8da050ab3cd1}, !- Inlet Port
  {d28dd447-58cb-4375-a6fa-ed6a69e7d211}; !- Outlet Port

OS:Node,
  {b37bd718-99c6-453c-9fd8-c33b8075a36c}, !- Handle
  Node 3,                                 !- Name
  {3175fe96-485b-4dd6-8223-50468a9c8869}, !- Inlet Port
  {f8e2ab09-6635-42da-b44b-160e24e02fff}; !- Outlet Port

OS:Connection,
  {d6b4aabb-16d3-428f-8664-8da050ab3cd1}, !- Handle
  {fd85d8ea-2ec1-43e3-9e03-b3f8cf82ad89}, !- Name
  {b5327634-7520-457f-8513-de2bde352041}, !- Source Object
  8,                                      !- Outlet Port
  {f0395050-57d4-48ca-b843-1be1ade78ed6}, !- Target Object
  2;                                      !- Inlet Port

OS:Connection,
  {f8e2ab09-6635-42da-b44b-160e24e02fff}, !- Handle
  {8db0a08c-d7f7-4e3e-ad1c-32f196be082e}, !- Name
  {b37bd718-99c6-453c-9fd8-c33b8075a36c}, !- Source Object
  3,                                      !- Outlet Port
  {b5327634-7520-457f-8513-de2bde352041}, !- Target Object
  11;                                     !- Inlet Port

OS:Node,