
OS:Version,
  {d3617142-b891-4519-aad8-dcf8a44fb99a}, !- Handle
  1.13.1;                                 !- Version Identifier

OS:Site,
  {bc874655-a927-4872-a278-1347186bb1d9}, !- Handle
  MIAMI_FL_USA,                           !- Name
  25.8,                                   !- Latitude {deg}
  -80.27,                                 !- Longitude {deg}
  -5,                                     !- Time Zone {hr}
  2,                                      !- Elevation {m}
  Country;                                !- Terrain

OS:YearDescription,
  {9116ce1c-534f-4b3a-9d15-2bb1a805c7e1}, !- Handle
  2008,                                   !- Calendar Year
  ,                                       !- Day of Week for Start Day
  ;                                       !- Is Leap Year

OS:ClimateZones,
  {dd268d6b-2da7-4abc-b8ad-35d0988c56cd}, !- Handle
  ,                                       !- Active Institution
  ,                                       !- Active Year
  ASHRAE,                                 !- Climate Zone Institution Name 1
  ANSI/ASHRAE Standard 169,               !- Climate Zone Document Name 1
  2006,                                   !- Climate Zone Document Year 1
  ,                                       !- Climate Zone Value 1
  CEC,                                    !- Climate Zone Institution Name 2
  California Climate Zone Descriptions,   !- Climate Zone Document Name 2
  1995,                                   !- Climate Zone Document Year 2
  ;                                       !- Climate Zone Value 2

OS:Facility,
  {01cd2b0a-8ee0-4ab6-a2fb-9f6c7d21094d}; !- Handle

OS:SimulationControl,
  {30e9303f-ed23-491c-b310-8ef7274e967f}, !- Handle
  ,                                       !- Do Zone Sizing Calculation
  ,                                       !- Do System Sizing Calculation
  ,                                       !- Do Plant Sizing Calculation
  No,                                     !- Run Simulation for Sizing Periods
  ,                                       !- Run Simulation for Weather File Run Periods
  ,                                       !- Loads Convergence Tolerance Value
  ,                                       !- Temperature Convergence Tolerance Value {deltaC}
  FullInteriorAndExterior,                !- Solar Distribution
  ,                                       !- Maximum Number of Warmup Days
  6;                                      !- Minimum Number of Warmup Days

OS:Sizing:Parameters,
  {c983733e-8a2d-428d-8380-a9c380f3d01c}, !- Handle
  1.25,                                   !- Heating Sizing Factor
  1.15;                                   !- Cooling Sizing Factor

OS:Timestep,
  {7a470c9d-4813-47b4-b276-325100b7b62f}, !- Handle
  4;                                      !- Number of Timesteps per Hour

OS:ShadowCalculation,
  {21696cf9-7a12-43bf-ac4c-50d1be8bf2fd}, !- Handle
  20,                                     !- Calculation Frequency
  15000;                                  !- Maximum Figures in Shadow Overlap Calculations

OS:HeatBalanceAlgorithm,
  {09f4a614-27ba-43a9-a0ac-4379e03c44e8}, !- Handle
  ConductionTransferFunction,             !- Algorithm
  200;                                    !- Surface Temperature Upper Limit {C}

OS:RunPeriod,
  {322b0b21-e55e-459f-b4f2-853d2d37fd9a}, !- Handle
  Run Period 1,                           !- Name
  1,                                      !- Begin Month
  1,                                      !- Begin Day of Month
  12,                                     !- End Month
  31,                                     !- End Day of Month
  ,                                       !- Use Weather File Holidays and Special Days
  ,                                       !- Use Weather File Daylight Saving Period
  ,                                       !- Apply Weekend Holiday Rule
  ,                                       !- Use Weather File Rain Indicators
  ,                                       !- Use Weather File Snow Indicators
  ;                                       !- Number of Times Runperiod to be Repeated

OS:LifeCycleCost:Parameters,
  {a8ce31c8-7533-4ad7-aa7a-5380b4197455}, !- Handle
  ,                                       !- Analysis Type
  ,                                       !- Discounting Convention
  ,                                       !- Inflation Approach
  ,                                       !- Real Discount Rate
  ,                                       !- Nominal Discount Rate
  ,                                       !- Inflation
  ,                                       !- Base Date Month
  ,                                       !- Base Date Year
  ,                                       !- Service Date Month
  ,                                       !- Service Date Year
  ;                                       !- Length of Study Period in Years

OS:SurfaceConvectionAlgorithm:Inside,
  {825cea47-73a5-48a9-a10c-c239d3df59e0}, !- Handle
  TARP;                                   !- Algorithm

OS:SurfaceConvectionAlgorithm:Outside,
  {9ee3b8c7-4a09-417a-a753-b0cf242c5eb2}, !- Handle
  TARP;                                   !- Algorithm

OS:WeatherFile,
  {e9ac1990-97e1-4ce8-8a67-7b8c383e1e11}, !- Handle
  MIAMI,                                  !- City
  FL,                                     !- State Province Region
  USA,                                    !- Country
  TMY2-12839,                             !- Data Source
  722020,                                 !- WMO Number
  25.8,                                   !- Latitude {deg}
  -80.27,                                 !- Longitude {deg}
  -5,                                     !- Time Zone {hr}
  2,                                      !- Elevation {m}
  file:///Users/dgoldwas/Documents/GitHub/OSEP_BESTTEST/measures/bestest_space_cooling_equipment_performance_tests/resources/CE200ATM2.epw, !- Url
  53932B90;                               !- Checksum

OS:SizingPeriod:DesignDay,
  {1779c200-04a6-4539-90f6-4139df8a9294}, !- Handle
  Sizing Period Design Day 1,             !- Name
  23,                                     !- Maximum Dry-Bulb Temperature {C}
  0,                                      !- Daily Dry-Bulb Temperature Range {deltaC}
  23,                                     !- Humidity Indicating Conditions at Maximum Dry-Bulb
  31000,                                  !- Barometric Pressure {Pa}
  0,                                      !- Wind Speed {m/s}
  0,                                      !- Wind Direction {deg}
  0,                                      !- Sky Clearness
  ,                                       !- Rain Indicator
  0,                                      !- Snow Indicator
  1,                                      !- Day of Month
  1,                                      !- Month
  SummerDesignDay,                        !- Day Type
  0,                                      !- Daylight Saving Time Indicator
  WetBulb,                                !- Humidity Indicating Type
  ,                                       !- Humidity Indicating Day Schedule Name
  DefaultMultipliers,                     !- Dry-Bulb Temperature Range Modifier Type
  ,                                       !- Dry-Bulb Temperature Range Modifier Schedule Name
  AshraeClearSky;                         !- Solar Model Indicator

OS:SizingPeriod:DesignDay,
  {51e153b2-b31c-4630-b242-e57d07897879}, !- Handle
  Sizing Period Design Day 2,             !- Name
  23,                                     !- Maximum Dry-Bulb Temperature {C}
  0,                                      !- Daily Dry-Bulb Temperature Range {deltaC}
  23,                                     !- Humidity Indicating Conditions at Maximum Dry-Bulb
  31000,                                  !- Barometric Pressure {Pa}
  0,                                      !- Wind Speed {m/s}
  0,                                      !- Wind Direction {deg}
  0,                                      !- Sky Clearness
  ,                                       !- Rain Indicator
  0,                                      !- Snow Indicator
  1,                                      !- Day of Month
  1,                                      !- Month
  WinterDesignDay,                        !- Day Type
  0,                                      !- Daylight Saving Time Indicator
  WetBulb,                                !- Humidity Indicating Type
  ,                                       !- Humidity Indicating Day Schedule Name
  DefaultMultipliers,                     !- Dry-Bulb Temperature Range Modifier Type
  ,                                       !- Dry-Bulb Temperature Range Modifier Schedule Name
  AshraeClearSky;                         !- Solar Model Indicator

OS:Building,
  {9224078c-50f5-4185-a47f-e1fdb0304b03}, !- Handle
  BESTEST Case CE200 - Full-Load Test at AHRI Conditions, !- Name
  ,                                       !- Building Sector Type
  0,                                      !- North Axis {deg}
  ,                                       !- Nominal Floor to Floor Height {m}
  ,                                       !- Space Type Name
  ,                                       !- Default Construction Set Name
  ;                                       !- Default Schedule Set Name

OS:ThermalZone,
  {7272ab57-58df-4eb0-b42a-6338c2bdc096}, !- Handle
  ZONE ONE,                               !- Name
  1,                                      !- Multiplier
  2.7,                                    !- Ceiling Height {m}
  129.6,                                  !- Volume {m3}
  ,                                       !- Floor Area {m2}
  ,                                       !- Zone Inside Convection Algorithm
  ,                                       !- Zone Outside Convection Algorithm
  ,                                       !- Zone Conditioning Equipment List Name
  {34d47367-8a38-4373-b47f-1a417b337ea9}, !- Zone Air Inlet Port List
  {c248411a-6c96-45f4-84fc-bdbf1f82d196}, !- Zone Air Exhaust Port List
  {d85e3352-bc4a-48f7-8350-22fb3b6e17db}, !- Zone Air Node Name
  {6aa2770c-f78f-49b0-b8e7-fd47ee7310be}, !- Zone Return Air Node Name
  ,                                       !- Primary Daylighting Control Name
  ,                                       !- Fraction of Zone Controlled by Primary Daylighting Control
  ,                                       !- Secondary Daylighting Control Name
  ,                                       !- Fraction of Zone Controlled by Secondary Daylighting Control
  ,                                       !- Illuminance Map Name
  ,                                       !- Group Rendering Name
  {bd6819da-fd80-4a5f-9c37-87415fabb369}, !- Thermostat Name
  No,                                     !- Use Ideal Air Loads
  ;                                       !- Humidistat Name

OS:Node,
  {16cc719f-359b-4e5c-b293-1589e04aadc1}, !- Handle
  Node 1,                                 !- Name
  {d85e3352-bc4a-48f7-8350-22fb3b6e17db}, !- Inlet Port
  ;                                       !- Outlet Port

OS:Connection,
  {d85e3352-bc4a-48f7-8350-22fb3b6e17db}, !- Handle
  {fef653c8-ce7c-4bef-b1c2-7774e5759890}, !- Name
  {7272ab57-58df-4eb0-b42a-6338c2bdc096}, !- Source Object
  11,                                     !- Outlet Port
  {16cc719f-359b-4e5c-b293-1589e04aadc1}, !- Target Object
  2;                                      !- Inlet Port

OS:PortList,
  {34d47367-8a38-4373-b47f-1a417b337ea9}, !- Handle
  Port List 1,                            !- Name
  {7272ab57-58df-4eb0-b42a-6338c2bdc096}, !- HVAC Component
  {8b7b12f4-08ca-4b23-a413-9a2fc7fa98f1}; !- Port 1

OS:PortList,
  {c248411a-6c96-45f4-84fc-bdbf1f82d196}, !- Handle
  Port List 2,                            !- Name
  {7272ab57-58df-4eb0-b42a-6338c2bdc096}; !- HVAC Component

OS:Sizing:Zone,
  {5b64f041-6e99-4fd0-813f-cb4eb9db47ea}, !- Handle
  {7272ab57-58df-4eb0-b42a-6338c2bdc096}, !- Zone or ZoneList Name
  SupplyAirTemperature,                   !- Zone Cooling Design Supply Air Temperature Input Method
  14,                                     !- Zone Cooling Design Supply Air Temperature {C}
  11.11,                                  !- Zone Cooling Design Supply Air Temperature Difference {deltaC}
  SupplyAirTemperature,                   !- Zone Heating Design Supply Air Temperature Input Method
  40,                                     !- Zone Heating Design Supply Air Temperature {C}
  11.11,                                  !- Zone Heating Design Supply Air Temperature Difference {deltaC}
  0.0085,                                 !- Zone Cooling Design Supply Air Humidity Ratio {kg-H2O/kg-air}
  0.008,                                  !- Zone Heating Design Supply Air Humidity Ratio {kg-H2O/kg-air}
  ,                                       !- Zone Heating Sizing Factor
  ,                                       !- Zone Cooling Sizing Factor
  DesignDay,                              !- Cooling Design Air Flow Method
  ,                                       !- Cooling Design Air Flow Rate {m3/s}
  ,                                       !- Cooling Minimum Air Flow per Zone Floor Area {m3/s-m2}
  ,                                       !- Cooling Minimum Air Flow {m3/s}
  ,                                       !- Cooling Minimum Air Flow Fraction
  DesignDay,                              !- Heating Design Air Flow Method
  ,                                       !- Heating Design Air Flow Rate {m3/s}
  ,                                       !- Heating Maximum Air Flow per Zone Floor Area {m3/s-m2}
  ,                                       !- Heating Maximum Air Flow {m3/s}
  ,                                       !- Heating Maximum Air Flow Fraction
  ,                                       !- Design Zone Air Distribution Effectiveness in Cooling Mode
  ,                                       !- Design Zone Air Distribution Effectiveness in Heating Mode
  No,                                     !- Account for Dedicated Outdoor Air System
  NeutralSupplyAir,                       !- Dedicated Outdoor Air System Control Strategy
  autosize,                               !- Dedicated Outdoor Air Low Setpoint Temperature for Design {C}
  autosize;                               !- Dedicated Outdoor Air High Setpoint Temperature for Design {C}

OS:ZoneHVAC:EquipmentList,
  {97c3a904-d6ec-4587-b851-ea8d298140b8}, !- Handle
  Zone HVAC Equipment List 1,             !- Name
  {7272ab57-58df-4eb0-b42a-6338c2bdc096}, !- Thermal Zone
  {6a8b1a8b-296a-4320-a031-6ee0cd634efd}, !- Zone Equipment 1
  1,                                      !- Zone Equipment Cooling Sequence 1
  1;                                      !- Zone Equipment Heating or No-Load Sequence 1

OS:Space,
  {abfd765e-68fe-4e9a-b168-eaef8d850664}, !- Handle
  ZONE ONE Space,                         !- Name
  ,                                       !- Space Type Name
  ,                                       !- Default Construction Set Name
  ,                                       !- Default Schedule Set Name
  0,                                      !- Direction of Relative North {deg}
  0,                                      !- X Origin {m}
  0,                                      !- Y Origin {m}
  0,                                      !- Z Origin {m}
  ,                                       !- Building Story Name
  {7272ab57-58df-4eb0-b42a-6338c2bdc096}; !- Thermal Zone Name

OS:Surface,
  {8b25acb3-cc26-4981-ac21-15f6da30c710}, !- Handle
  ZONE SURFACE FLOOR,                     !- Name
  Floor,                                  !- Surface Type
  {a482cdd1-bbe7-45fa-b59f-a167ee47fff4}, !- Construction Name
  {abfd765e-68fe-4e9a-b168-eaef8d850664}, !- Space Name
  Outdoors,                               !- Outside Boundary Condition
  ,                                       !- Outside Boundary Condition Object
  SunExposed,                             !- Sun Exposure
  WindExposed,                            !- Wind Exposure
  0,                                      !- View Factor to Ground
  ,                                       !- Number of Vertices
  8, 6, 0,                                !- X,Y,Z Vertex 1 {m}
  8, 0, 0,                                !- X,Y,Z Vertex 2 {m}
  0, 0, 0,                                !- X,Y,Z Vertex 3 {m}
  0, 6, 0;                                !- X,Y,Z Vertex 4 {m}

OS:Construction,
  {a482cdd1-bbe7-45fa-b59f-a167ee47fff4}, !- Handle
  LTWALL,                                 !- Name
  ,                                       !- Surface Rendering Name
  {66607a80-6009-4119-a083-fc5c467ca8f4}, !- Layer 1
  {d4bbf75d-a8ed-452f-9e08-203442024c4f}; !- Layer 2

OS:Material:NoMass,
  {66607a80-6009-4119-a083-fc5c467ca8f4}, !- Handle
  INSULATION-EXT,                         !- Name
  VerySmooth,                             !- Roughness
  50,                                     !- Thermal Resistance {m2-K/W}
  0.9,                                    !- Thermal Absorptance
  0.1,                                    !- Solar Absorptance
  0.1;                                    !- Visible Absorptance

OS:Material:NoMass,
  {d4bbf75d-a8ed-452f-9e08-203442024c4f}, !- Handle
  INSULATION-INT,                         !- Name
  VerySmooth,                             !- Roughness
  50,                                     !- Thermal Resistance {m2-K/W}
  0.9,                                    !- Thermal Absorptance
  0.6,                                    !- Solar Absorptance
  0.6;                                    !- Visible Absorptance

OS:Surface,
  {7ae8a5c8-35ca-4222-874a-59cf54b8d693}, !- Handle
  ZONE SURFACE SOUTH,                     !- Name
  Wall,                                   !- Surface Type
  {a482cdd1-bbe7-45fa-b59f-a167ee47fff4}, !- Construction Name
  {abfd765e-68fe-4e9a-b168-eaef8d850664}, !- Space Name
  Outdoors,                               !- Outside Boundary Condition
  ,                                       !- Outside Boundary Condition Object
  SunExposed,                             !- Sun Exposure
  WindExposed,                            !- Wind Exposure
  0.5,                                    !- View Factor to Ground
  ,                                       !- Number of Vertices
  0, 0, 2.7,                              !- X,Y,Z Vertex 1 {m}
  0, 0, 0,                                !- X,Y,Z Vertex 2 {m}
  8, 0, 0,                                !- X,Y,Z Vertex 3 {m}
  8, 0, 2.7;                              !- X,Y,Z Vertex 4 {m}

OS:Surface,
  {e54c6cf2-6cd6-4724-bcce-0ac6fd2ee16f}, !- Handle
  ZONE SURFACE WEST,                      !- Name
  Wall,                                   !- Surface Type
  {a482cdd1-bbe7-45fa-b59f-a167ee47fff4}, !- Construction Name
  {abfd765e-68fe-4e9a-b168-eaef8d850664}, !- Space Name
  Outdoors,                               !- Outside Boundary Condition
  ,                                       !- Outside Boundary Condition Object
  SunExposed,                             !- Sun Exposure
  WindExposed,                            !- Wind Exposure
  0.5,                                    !- View Factor to Ground
  ,                                       !- Number of Vertices
  0, 6, 2.7,                              !- X,Y,Z Vertex 1 {m}
  0, 6, 0,                                !- X,Y,Z Vertex 2 {m}
  0, 0, 0,                                !- X,Y,Z Vertex 3 {m}
  0, 0, 2.7;                              !- X,Y,Z Vertex 4 {m}

OS:Surface,
  {70f7cb59-9d91-48c0-ae74-56eb12456501}, !- Handle
  ZONE SURFACE NORTH,                     !- Name
  Wall,                                   !- Surface Type
  {a482cdd1-bbe7-45fa-b59f-a167ee47fff4}, !- Construction Name
  {abfd765e-68fe-4e9a-b168-eaef8d850664}, !- Space Name
  Outdoors,                               !- Outside Boundary Condition
  ,                                       !- Outside Boundary Condition Object
  SunExposed,                             !- Sun Exposure
  WindExposed,                            !- Wind Exposure
  0.5,                                    !- View Factor to Ground
  ,                                       !- Number of Vertices
  8, 6, 2.7,                              !- X,Y,Z Vertex 1 {m}
  8, 6, 0,                                !- X,Y,Z Vertex 2 {m}
  0, 6, 0,                                !- X,Y,Z Vertex 3 {m}
  0, 6, 2.7;                              !- X,Y,Z Vertex 4 {m}

OS:Surface,
  {e8a2b3c8-9e07-4d3a-8b1b-f1597efd3bb4}, !- Handle
  ZONE SURFACE ROOF,                      !- Name
  RoofCeiling,                            !- Surface Type
  {a482cdd1-bbe7-45fa-b59f-a167ee47fff4}, !- Construction Name
  {abfd765e-68fe-4e9a-b168-eaef8d850664}, !- Space Name
  Outdoors,                               !- Outside Boundary Condition
  ,                                       !- Outside Boundary Condition Object
  SunExposed,                             !- Sun Exposure
  WindExposed,                            !- Wind Exposure
  0,                                      !- View Factor to Ground
  ,                                       !- Number of Vertices
  8, 0, 2.7,                              !- X,Y,Z Vertex 1 {m}
  8, 6, 2.7,                              !- X,Y,Z Vertex 2 {m}
  0, 6, 2.7,                              !- X,Y,Z Vertex 3 {m}
  0, 0, 2.7;                              !- X,Y,Z Vertex 4 {m}

OS:Surface,
  {1be3e3da-8580-4e24-99f7-7f664a6157ce}, !- Handle
  ZONE SURFACE EAST,                      !- Name
  Wall,                                   !- Surface Type
  {a482cdd1-bbe7-45fa-b59f-a167ee47fff4}, !- Construction Name
  {abfd765e-68fe-4e9a-b168-eaef8d850664}, !- Space Name
  Outdoors,                               !- Outside Boundary Condition
  ,                                       !- Outside Boundary Condition Object
  SunExposed,                             !- Sun Exposure
  WindExposed,                            !- Wind Exposure
  0.5,                                    !- View Factor to Ground
  ,                                       !- Number of Vertices
  8, 0, 2.7,                              !- X,Y,Z Vertex 1 {m}
  8, 0, 0,                                !- X,Y,Z Vertex 2 {m}
  8, 6, 0,                                !- X,Y,Z Vertex 3 {m}
  8, 6, 2.7;                              !- X,Y,Z Vertex 4 {m}

OS:OtherEquipment,
  {eb7b8218-9d26-4f27-acc9-79d7177e4c55}, !- Handle
  CE_sens_generic_inst,                   !- Name
  {d7f4b06f-9612-4621-92f6-2472080c0597}, !- Other Equipment Definition Name
  {abfd765e-68fe-4e9a-b168-eaef8d850664}, !- Space or SpaceType Name
  {e78c69ef-1853-429b-af5c-196961d4107b}; !- Schedule Name

OS:OtherEquipment:Definition,
  {d7f4b06f-9612-4621-92f6-2472080c0597}, !- Handle
  CE_sens_generic,                        !- Name
  EquipmentLevel,                         !- Design Level Calculation Method
  6120,                                   !- Design Level {W}
  ,                                       !- Watts per Space Floor Area {W/m2}
  ;                                       !- Watts per Person {W/Person}

OS:Schedule:Ruleset,
  {e78c69ef-1853-429b-af5c-196961d4107b}, !- Handle
  Always On Ruleset Fractional,           !- Name
  {90cb3515-876a-4b9f-aafb-e27d55cb2bf2}, !- Schedule Type Limits Name
  {10e1d5e5-ca45-4fb3-8e52-41a9a477b051}; !- Default Day Schedule Name

OS:Schedule:Day,
  {10e1d5e5-ca45-4fb3-8e52-41a9a477b051}, !- Handle
  Schedule Day 6,                         !- Name
  {90cb3515-876a-4b9f-aafb-e27d55cb2bf2}, !- Schedule Type Limits Name
  ,                                       !- Interpolate to Timestep
  24,                                     !- Hour 1
  0,                                      !- Minute 1
  1;                                      !- Value Until Time 1

OS:ScheduleTypeLimits,
  {90cb3515-876a-4b9f-aafb-e27d55cb2bf2}, !- Handle
  Fractional,                             !- Name
  0,                                      !- Lower Limit Value
  1,                                      !- Upper Limit Value
  Continuous;                             !- Numeric Type

OS:OtherEquipment,
  {50f398d0-4d28-4e3d-860c-2babaee383bd}, !- Handle
  CE_lat_generic_inst,                    !- Name
  {33ae501f-b18b-4dbf-a0c9-bbfe2e481d4d}, !- Other Equipment Definition Name
  {abfd765e-68fe-4e9a-b168-eaef8d850664}, !- Space or SpaceType Name
  {e78c69ef-1853-429b-af5c-196961d4107b}; !- Schedule Name

OS:OtherEquipment:Definition,
  {33ae501f-b18b-4dbf-a0c9-bbfe2e481d4d}, !- Handle
  CE_lat_generic,                         !- Name
  EquipmentLevel,                         !- Design Level Calculation Method
  1817,                                   !- Design Level {W}
  ,                                       !- Watts per Space Floor Area {W/m2}
  ,                                       !- Watts per Person {W/Person}
  1,                                      !- Fraction Latent
  0;                                      !- Fraction Radiant

OS:Schedule:Constant,
  {2a99aaf9-2f43-4cc8-9d41-cb481ac55cd3}, !- Handle
  26.7 C,                                 !- Name
  {1b7b54ef-a94f-4a42-8e80-891b57106579}, !- Schedule Type Limits Name
  26.7;                                   !- Value

OS:Schedule:Ruleset,
  {f5d26936-93aa-4a95-b00c-999423b69e87}, !- Handle
  No Heating,                             !- Name
  {1b7b54ef-a94f-4a42-8e80-891b57106579}, !- Schedule Type Limits Name
  {e4b2d3e0-7f40-428b-99af-0d65ac40851d}; !- Default Day Schedule Name

OS:ScheduleTypeLimits,
  {1b7b54ef-a94f-4a42-8e80-891b57106579}, !- Handle
  Temperature,                            !- Name
  ,                                       !- Lower Limit Value
  ,                                       !- Upper Limit Value
  Continuous,                             !- Numeric Type
  Temperature;                            !- Unit Type

OS:Schedule:Day,
  {e4b2d3e0-7f40-428b-99af-0d65ac40851d}, !- Handle
  Schedule Day 2,                         !- Name
  {1b7b54ef-a94f-4a42-8e80-891b57106579}, !- Schedule Type Limits Name
  ,                                       !- Interpolate to Timestep
  24,                                     !- Hour 1
  0,                                      !- Minute 1
  -100;                                   !- Value Until Time 1

OS:ThermostatSetpoint:DualSetpoint,
  {bd6819da-fd80-4a5f-9c37-87415fabb369}, !- Handle
  Thermostat Setpoint Dual Setpoint 1,    !- Name
  {f5d26936-93aa-4a95-b00c-999423b69e87}, !- Heating Setpoint Temperature Schedule Name
  {2a99aaf9-2f43-4cc8-9d41-cb481ac55cd3}; !- Cooling Setpoint Temperature Schedule Name

OS:Schedule:Constant,
  {3d40e39c-dd2b-4e86-a0ae-460ec0831959}, !- Handle
  Always On Discrete,                     !- Name
  {5836ae49-0a3d-4c37-926f-bb537213c456}, !- Schedule Type Limits Name
  1;                                      !- Value

OS:ScheduleTypeLimits,
  {5836ae49-0a3d-4c37-926f-bb537213c456}, !- Handle
  OnOff,                                  !- Name
  0,                                      !- Lower Limit Value
  1,                                      !- Upper Limit Value
  Discrete,                               !- Numeric Type
  Availability;                           !- Unit Type

OS:Schedule:Constant,
  {547de25b-7d3b-4289-8965-59badb2bd2f5}, !- Handle
  Always Off Discrete,                    !- Name
  {acde189d-28a2-4118-b443-04fe035aefe7}, !- Schedule Type Limits Name
  0;                                      !- Value

OS:ScheduleTypeLimits,
  {acde189d-28a2-4118-b443-04fe035aefe7}, !- Handle
  OnOff 1,                                !- Name
  0,                                      !- Lower Limit Value
  1,                                      !- Upper Limit Value
  Discrete,                               !- Numeric Type
  Availability;                           !- Unit Type

OS:AirLoopHVAC,
  {6b903c79-09e1-4045-b532-abfbe9aaf11f}, !- Handle
  BESTEST CE air loop,                    !- Name
  ,                                       !- Controller List Name
  {3d40e39c-dd2b-4e86-a0ae-460ec0831959}, !- Availability Schedule
  ,                                       !- Availability Manager
  0.425,                                  !- Design Supply Air Flow Rate {m3/s}
  ,                                       !- Branch List Name
  ,                                       !- Connector List Name
  {7f79e41d-c9f7-4fb5-aacb-0933c1346f2c}, !- Supply Side Inlet Node Name
  {05dda72c-21df-48cf-b4f5-e7c5dd7c739c}, !- Demand Side Outlet Node Name
  {6da93991-235e-4ab4-88fe-a8977c4f758f}, !- Demand Side Inlet Node A
  {0b27e13f-54f0-43e9-ba84-5226fc35cf45}, !- Supply Side Outlet Node A
  ,                                       !- Demand Side Inlet Node B
  ;                                       !- Supply Side Outlet Node B

OS:Node,
  {3a9fce09-2387-4bbe-956e-b2b57db590b9}, !- Handle
  Node 2,                                 !- Name
  {7f79e41d-c9f7-4fb5-aacb-0933c1346f2c}, !- Inlet Port
  {1fff8fe7-4324-4164-8b59-78057852b6a5}; !- Outlet Port

OS:Node,
  {2788fc9b-915f-4cbf-a26e-755e70307c64}, !- Handle
  Node 3,                                 !- Name
  {a746aeaf-e119-4e12-8026-98fb167419d7}, !- Inlet Port
  {0b27e13f-54f0-43e9-ba84-5226fc35cf45}; !- Outlet Port

OS:Connection,
  {7f79e41d-c9f7-4fb5-aacb-0933c1346f2c}, !- Handle
  {e9223cfd-aa8c-4a4a-992b-8669eda4bb7e}, !- Name
  {6b903c79-09e1-4045-b532-abfbe9aaf11f}, !- Source Object
  8,                                      !- Outlet Port
  {3a9fce09-2387-4bbe-956e-b2b57db590b9}, !- Target Object
  2;                                      !- Inlet Port

OS:Connection,
  {0b27e13f-54f0-43e9-ba84-5226fc35cf45}, !- Handle
  {a1eb0c3a-728f-4fbd-997d-adaf205f1f34}, !- Name
  {2788fc9b-915f-4cbf-a26e-755e70307c64}, !- Source Object
  3,                                      !- Outlet Port
  {6b903c79-09e1-4045-b532-abfbe9aaf11f}, !- Target Object
  11;                                     !- Inlet Port

OS:Node,