
Version,
  8.8;                                    !- Version Identifier

LifeCycleCost:Parameters,
  {6e9ecd48-bac9-4098-aeb2-2a73238eb61b}, !- Name
  EndOfYear,                              !- Discounting Convention
  ConstantDollar,                         !- Inflation Approach
  0.03,                                   !- Real Discount Rate
  ,                                       !- Nominal Discount Rate
  ,                                       !- Inflation
  ,                                       !- Base Date Month
  2011,                                   !- Base Date Year
  ,                                       !- Service Date Month
  2011,                                   !- Service Date Year
  25,                                     !- Length of Study Period in Years
  ,                                       !- Tax rate
  None;                                   !- Depreciation Method

LifeCycleCost:UsePriceEscalation,
  U.S. Avg  Commercial-Electricity,       !- LCC Price Escalation Name
  Electricity,                            !- Resource
  2011,                                   !- Escalation Start Year
  January,                                !- Escalation Start Month
  0.9838,                                 !- Year Escalation 1
  0.9730,                                 !- Year Escalation 2
  0.9632,                                 !- Year Escalation 3
  0.9611,                                 !- Year Escalation 4
  0.9571,                                 !- Year Escalation 5
  0.9553,                                 !- Year Escalation 6
  0.9539,                                 !- Year Escalation 7
  0.9521,                                 !- Year Escalation 8
  0.9546,                                 !- Year Escalation 9
  0.9550,                                 !- Year Escalation 10
  0.9553,                                 !- Year Escalation 11
  0.9564,                                 !- Year Escalation 12
  0.9575,                                 !- Year Escalation 13
  0.9596,                                 !- Year Escalation 14
  0.9618,                                 !- Year Escalation 15
  0.9614,                                 !- Year Escalation 16
  0.9618,                                 !- Year Escalation 17
  0.9618,                                 !- Year Escalation 18
  0.9593,                                 !- Year Escalation 19
  0.9589,                                 !- Year Escalation 20
  0.9607,                                 !- Year Escalation 21
  0.9625,                                 !- Year Escalation 22
  0.9650,                                 !- Year Escalation 23
  0.9708,                                 !- Year Escalation 24
  0.9751,                                 !- Year Escalation 25
  0.9762,                                 !- Year Escalation 26
  0.9766,                                 !- Year Escalation 27
  0.9766,                                 !- Year Escalation 28
  0.9769,                                 !- Year Escalation 29
  0.9773;                                 !- Year Escalation 30

LifeCycleCost:UsePriceEscalation,
  U.S. Avg  Commercial-Distillate Oil,    !- LCC Price Escalation Name
  FuelOil#1,                              !- Resource
  2011,                                   !- Escalation Start Year
  January,                                !- Escalation Start Month
  0.9714,                                 !- Year Escalation 1
  0.9730,                                 !- Year Escalation 2
  0.9942,                                 !- Year Escalation 3
  1.0164,                                 !- Year Escalation 4
  1.0541,                                 !- Year Escalation 5
  1.0928,                                 !- Year Escalation 6
  1.1267,                                 !- Year Escalation 7
  1.1580,                                 !- Year Escalation 8
  1.1792,                                 !- Year Escalation 9
  1.1967,                                 !- Year Escalation 10
  1.2200,                                 !- Year Escalation 11
  1.2333,                                 !- Year Escalation 12
  1.2566,                                 !- Year Escalation 13
  1.2709,                                 !- Year Escalation 14
  1.2826,                                 !- Year Escalation 15
  1.2985,                                 !- Year Escalation 16
  1.3102,                                 !- Year Escalation 17
  1.3250,                                 !- Year Escalation 18
  1.3261,                                 !- Year Escalation 19
  1.3282,                                 !- Year Escalation 20
  1.3324,                                 !- Year Escalation 21
  1.3356,                                 !- Year Escalation 22
  1.3431,                                 !- Year Escalation 23
  1.3510,                                 !- Year Escalation 24
  1.3568,                                 !- Year Escalation 25
  1.3606,                                 !- Year Escalation 26
  1.3637,                                 !- Year Escalation 27
  1.3674,                                 !- Year Escalation 28
  1.3706,                                 !- Year Escalation 29
  1.3743;                                 !- Year Escalation 30

LifeCycleCost:UsePriceEscalation,
  U.S. Avg  Commercial-Residual Oil,      !- LCC Price Escalation Name
  FuelOil#2,                              !- Resource
  2011,                                   !- Escalation Start Year
  January,                                !- Escalation Start Month
  0.8469,                                 !- Year Escalation 1
  0.8257,                                 !- Year Escalation 2
  0.8681,                                 !- Year Escalation 3
  0.8988,                                 !- Year Escalation 4
  0.9289,                                 !- Year Escalation 5
  0.9604,                                 !- Year Escalation 6
  0.9897,                                 !- Year Escalation 7
  1.0075,                                 !- Year Escalation 8
  1.0314,                                 !- Year Escalation 9
  1.0554,                                 !- Year Escalation 10
  1.0861,                                 !- Year Escalation 11
  1.1278,                                 !- Year Escalation 12
  1.1497,                                 !- Year Escalation 13
  1.1620,                                 !- Year Escalation 14
  1.1743,                                 !- Year Escalation 15
  1.1852,                                 !- Year Escalation 16
  1.1948,                                 !- Year Escalation 17
  1.2037,                                 !- Year Escalation 18
  1.2071,                                 !- Year Escalation 19
  1.2119,                                 !- Year Escalation 20
  1.2139,                                 !- Year Escalation 21
  1.2194,                                 !- Year Escalation 22
  1.2276,                                 !- Year Escalation 23
  1.2365,                                 !- Year Escalation 24
  1.2420,                                 !- Year Escalation 25
  1.2461,                                 !- Year Escalation 26
  1.2509,                                 !- Year Escalation 27
  1.2550,                                 !- Year Escalation 28
  1.2591,                                 !- Year Escalation 29
  1.2638;                                 !- Year Escalation 30

LifeCycleCost:UsePriceEscalation,
  U.S. Avg  Commercial-Natural gas,       !- LCC Price Escalation Name
  NaturalGas,                             !- Resource
  2011,                                   !- Escalation Start Year
  January,                                !- Escalation Start Month
  0.9823,                                 !- Year Escalation 1
  0.9557,                                 !- Year Escalation 2
  0.9279,                                 !- Year Escalation 3
  0.9257,                                 !- Year Escalation 4
  0.9346,                                 !- Year Escalation 5
  0.9412,                                 !- Year Escalation 6
  0.9512,                                 !- Year Escalation 7
  0.9645,                                 !- Year Escalation 8
  0.9856,                                 !- Year Escalation 9
  1.0067,                                 !- Year Escalation 10
  1.0222,                                 !- Year Escalation 11
  1.0410,                                 !- Year Escalation 12
  1.0610,                                 !- Year Escalation 13
  1.0787,                                 !- Year Escalation 14
  1.0942,                                 !- Year Escalation 15
  1.1098,                                 !- Year Escalation 16
  1.1220,                                 !- Year Escalation 17
  1.1308,                                 !- Year Escalation 18
  1.1386,                                 !- Year Escalation 19
  1.1486,                                 !- Year Escalation 20
  1.1619,                                 !- Year Escalation 21
  1.1763,                                 !- Year Escalation 22
  1.1918,                                 !- Year Escalation 23
  1.2118,                                 !- Year Escalation 24
  1.2284,                                 !- Year Escalation 25
  1.2439,                                 !- Year Escalation 26
  1.2605,                                 !- Year Escalation 27
  1.2772,                                 !- Year Escalation 28
  1.2938,                                 !- Year Escalation 29
  1.3115;                                 !- Year Escalation 30

LifeCycleCost:UsePriceEscalation,
  U.S. Avg  Commercial-Coal,              !- LCC Price Escalation Name
  Coal,                                   !- Resource
  2011,                                   !- Escalation Start Year
  January,                                !- Escalation Start Month
  0.9970,                                 !- Year Escalation 1
  1.0089,                                 !- Year Escalation 2
  1.0089,                                 !- Year Escalation 3
  0.9941,                                 !- Year Escalation 4
  0.9941,                                 !- Year Escalation 5
  1.0000,                                 !- Year Escalation 6
  1.0030,                                 !- Year Escalation 7
  1.0059,                                 !- Year Escalation 8
  1.0089,                                 !- Year Escalation 9
  1.0119,                                 !- Year Escalation 10
  1.0148,                                 !- Year Escalation 11
  1.0178,                                 !- Year Escalation 12
  1.0208,                                 !- Year Escalation 13
  1.0267,                                 !- Year Escalation 14
  1.0297,                                 !- Year Escalation 15
  1.0356,                                 !- Year Escalation 16
  1.0415,                                 !- Year Escalation 17
  1.0534,                                 !- Year Escalation 18
  1.0564,                                 !- Year Escalation 19
  1.0593,                                 !- Year Escalation 20
  1.0653,                                 !- Year Escalation 21
  1.0712,                                 !- Year Escalation 22
  1.0742,                                 !- Year Escalation 23
  1.0801,                                 !- Year Escalation 24
  1.0831,                                 !- Year Escalation 25
  1.0831,                                 !- Year Escalation 26
  1.0861,                                 !- Year Escalation 27
  1.0890,                                 !- Year Escalation 28
  1.0920,                                 !- Year Escalation 29
  1.0950;                                 !- Year Escalation 30

Building,
  BESTEST Case CE400 - Temperature Control, !- Name
  0,                                      !- North Axis {deg}
  Country,                                !- Terrain
  ,                                       !- Loads Convergence Tolerance Value
  ,                                       !- Temperature Convergence Tolerance Value {deltaC}
  FullInteriorAndExterior,                !- Solar Distribution
  ,                                       !- Maximum Number of Warmup Days
  6;                                      !- Minimum Number of Warmup Days

Zone,
  ZONE ONE,                               !- Name
  0,                                      !- Direction of Relative North {deg}
  0,                                      !- X Origin {m}
  0,                                      !- Y Origin {m}
  0,                                      !- Z Origin {m}
  ,                                       !- Type
  1,                                      !- Multiplier
  3,                                      !- Ceiling Height {m}
  588,                                    !- Volume {m3}
  ,                                       !- Floor Area {m2}
  ,                                       !- Zone Inside Convection Algorithm
  ;                                       !- Zone Outside Convection Algorithm

BuildingSurface:Detailed,
  ZONE SURFACE EAST,                      !- Name
  Wall,                                   !- Surface Type
  LTWALL,                                 !- Construction Name
  ZONE ONE,                               !- Zone Name
  Outdoors,                               !- Outside Boundary Condition
  ,                                       !- Outside Boundary Condition Object
  SunExposed,                             !- Sun Exposure
  WindExposed,                            !- Wind Exposure
  0.5,                                    !- View Factor to Ground
  ,                                       !- Number of Vertices
  14, 0, 3,                               !- X,Y,Z Vertex 1 {m}
  14, 0, 0,                               !- X,Y,Z Vertex 2 {m}
  14, 14, 0,                              !- X,Y,Z Vertex 3 {m}
  14, 14, 3;                              !- X,Y,Z Vertex 4 {m}

BuildingSurface:Detailed,
  ZONE SURFACE FLOOR,                     !- Name
  Floor,                                  !- Surface Type
  LTWALL,                                 !- Construction Name
  ZONE ONE,                               !- Zone Name
  Outdoors,                               !- Outside Boundary Condition
  ,                                       !- Outside Boundary Condition Object
  SunExposed,                             !- Sun Exposure
  WindExposed,                            !- Wind Exposure
  0,                                      !- View Factor to Ground
  ,                                       !- Number of Vertices
  14, 14, 0,                              !- X,Y,Z Vertex 1 {m}
  14, 0, 0,                               !- X,Y,Z Vertex 2 {m}
  0, 0, 0,                                !- X,Y,Z Vertex 3 {m}
  0, 14, 0;                               !- X,Y,Z Vertex 4 {m}

BuildingSurface:Detailed,
  ZONE SURFACE NORTH,                     !- Name
  Wall,                                   !- Surface Type
  LTWALL,                                 !- Construction Name
  ZONE ONE,                               !- Zone Name
  Outdoors,                               !- Outside Boundary Condition
  ,                                       !- Outside Boundary Condition Object
  SunExposed,                             !- Sun Exposure
  WindExposed,                            !- Wind Exposure
  0.5,                                    !- View Factor to Ground
  ,                                       !- Number of Vertices
  14, 14, 3,                              !- X,Y,Z Vertex 1 {m}
  14, 14, 0,                              !- X,Y,Z Vertex 2 {m}
  0, 14, 0,                               !- X,Y,Z Vertex 3 {m}
  0, 14, 3;                               !- X,Y,Z Vertex 4 {m}

BuildingSurface:Detailed,
  ZONE SURFACE ROOF,                      !- Name
  Roof,                                   !- Surface Type
  LTWALL,                                 !- Construction Name
  ZONE ONE,                               !- Zone Name
  Outdoors,                               !- Outside Boundary Condition
  ,                                       !- Outside Boundary Condition Object
  SunExposed,                             !- Sun Exposure
  WindExposed,                            !- Wind Exposure
  0,                                      !- View Factor to Ground
  ,                                       !- Number of Vertices
  14, 0, 3,                               !- X,Y,Z Vertex 1 {m}
  14, 14, 3,                              !- X,Y,Z Vertex 2 {m}
  0, 14, 3,                               !- X,Y,Z Vertex 3 {m}
  0, 0, 3;                                !- X,Y,Z Vertex 4 {m}

BuildingSurface:Detailed,
  ZONE SURFACE SOUTH,                     !- Name
  Wall,                                   !- Surface Type
  LTWALL,                                 !- Construction Name
  ZONE ONE,                               !- Zone Name
  Outdoors,                               !- Outside Boundary Condition
  ,                                       !- Outside Boundary Condition Object
  SunExposed,                             !- Sun Exposure
  WindExposed,                            !- Wind Exposure
  0.5,                                    !- View Factor to Ground
  ,                                       !- Number of Vertices
  0, 0, 3,                                !- X,Y,Z Vertex 1 {m}
  0, 0, 0,                                !- X,Y,Z Vertex 2 {m}
  14, 0, 0,                               !- X,Y,Z Vertex 3 {m}
  14, 0, 3;                               !- X,Y,Z Vertex 4 {m}

BuildingSurface:Detailed,
  ZONE SURFACE WEST,                      !- Name
  Wall,                                   !- Surface Type
  LTWALL,                                 !- Construction Name
  ZONE ONE,                               !- Zone Name
  Outdoors,                               !- Outside Boundary Condition
  ,                                       !- Outside Boundary Condition Object
  SunExposed,                             !- Sun Exposure
  WindExposed,                            !- Wind Exposure
  0.5,                                    !- View Factor to Ground
  ,                                       !- Number of Vertices
  0, 14, 3,                               !- X,Y,Z Vertex 1 {m}
  0, 14, 0,                               !- X,Y,Z Vertex 2 {m}
  0, 0, 0,                                !- X,Y,Z Vertex 3 {m}
  0, 0, 3;                                !- X,Y,Z Vertex 4 {m}

OtherEquipment,
  CE_lat_mid_inst,                        !- Name
  None,                                   !- Fuel Type
  ZONE ONE,                               !- Zone or ZoneList Name
  CE300_lat_mid,                          !- Schedule Name
  EquipmentLevel,                         !- Design Level Calculation Method
  1466,                                   !- Design Level {W}
  ,                                       !- Power per Zone Floor Area {W/m2}
  ,                                       !- Power per Person {W/Person}
  1,                                      !- Fraction Latent
  0,                                      !- Fraction Radiant
  ;                                       !- Fraction Lost

OtherEquipment,
  CE_sens_mid_inst,                       !- Name
  None,                                   !- Fuel Type
  ZONE ONE,                               !- Zone or ZoneList Name
  CE300_sens_mid,                         !- Schedule Name
  EquipmentLevel,                         !- Design Level Calculation Method
  18758,                                  !- Design Level {W}
  ,                                       !- Power per Zone Floor Area {W/m2}
  ,                                       !- Power per Person {W/Person}
  ,                                       !- Fraction Latent
  ,                                       !- Fraction Radiant
  ;                                       !- Fraction Lost

ZoneControl:Thermostat,
  ZONE ONE Thermostat,                    !- Name
  ZONE ONE,                               !- Zone or ZoneList Name
  ZONE ONE Thermostat Schedule,           !- Control Type Schedule Name
  ThermostatSetpoint:DualSetpoint,        !- Control Object Type 1
  Thermostat Setpoint Dual Setpoint 1;    !- Control Name 1

Schedule:Compact,
  ZONE ONE Thermostat Schedule,           !- Name
  ZONE ONE Thermostat Schedule Type Limits, !- Schedule Type Limits Name
  Through: 12/31,                         !- Field 1
  For: AllDays,                           !- Field 2
  Until: 24:00,                           !- Field 3
  4;                                      !- Field 4

ScheduleTypeLimits,
  ZONE ONE Thermostat Schedule Type Limits, !- Name
  0,                                      !- Lower Limit Value {BasedOnField A3}
  4,                                      !- Upper Limit Value {BasedOnField A3}
  DISCRETE;                               !- Numeric Type

ThermostatSetpoint:DualSetpoint,
  Thermostat Setpoint Dual Setpoint 1,    !- Name
  No Heating,                             !- Heating Setpoint Temperature Schedule Name
  25.0 C;                                 !- Cooling Setpoint Temperature Schedule Name

ScheduleTypeLimits,
  Temperature,                            !- Name
  ,                                       !- Lower Limit Value {BasedOnField A3}
  ,                                       !- Upper Limit Value {BasedOnField A3}
  Continuous,                             !- Numeric Type
  temperature;                            !- Unit Type

Schedule:Day:Interval,
  Schedule Day 2,                         !- Name
  Temperature,                            !- Schedule Type Limits Name
  No,                                     !- Interpolate to Timestep
  24:00,                                  !- Time 1 {hh:mm}
  -100;                                   !- Value Until Time 1

Schedule:Week:Daily,
  Schedule:Week:Daily {8cb1c6ef-8dd3-49e2-8288-c46c319f3669}, !- Name
  Schedule Day 2,                         !- Sunday Schedule:Day Name
  Schedule Day 2,                         !- Monday Schedule:Day Name
  Schedule Day 2,                         !- Tuesday Schedule:Day Name
  Schedule Day 2,                         !- Wednesday Schedule:Day Name
  Schedule Day 2,                         !- Thursday Schedule:Day Name
  Schedule Day 2,                         !- Friday Schedule:Day Name
  Schedule Day 2,                         !- Saturday Schedule:Day Name
  Schedule Day 2,                         !- Holiday Schedule:Day Name
  Schedule Day 2,                         !- SummerDesignDay Schedule:Day Name
  Schedule Day 2,                         !- WinterDesignDay Schedule:Day Name
  Schedule Day 2,                         !- CustomDay1 Schedule:Day Name
  Schedule Day 2;                         !- CustomDay2 Schedule:Day Name

Schedule:Year,
  No Heating,                             !- Name
  Temperature,                            !- Schedule Type Limits Name
  Schedule:Week:Daily {8cb1c6ef-8dd3-49e2-8288-c46c319f3669}, !- Schedule:Week Name 1
  1,                                      !- Start Month 1
  1,                                      !- Start Day 1
  12,                                     !- End Month 1
  31;                                     !- End Day 1

Schedule:Constant,
  25.0 C,                                 !- Name
  Temperature,                            !- Schedule Type Limits Name
  25;                                     !- Hourly Value

ZoneHVAC:EquipmentConnections,
  ZONE ONE,                               !- Zone Name
  ZONE ONE Equipment List,                !- Zone Conditioning Equipment List Name
  ZONE ONE Inlet Node List,               !- Zone Air Inlet Node or NodeList Name
  ,                                       !- Zone Air Exhaust Node or NodeList Name
  Node 1,                                 !- Zone Air Node Name
  Node 10;                                !- Zone Return Air Node or NodeList Name

NodeList,
  ZONE ONE Inlet Node List,               !- Name
  Node 6;                                 !- Node Name 1

AirTerminal:SingleDuct:Uncontrolled,
  Air Terminal Single Duct Uncontrolled 1, !- Name
  Always On Discrete,                     !- Availability Schedule Name
  Node 6,                                 !- Zone Supply Air Node Name
  1.888;                                  !- Maximum Air Flow Rate {m3/s}

ZoneHVAC:EquipmentList,
  ZONE ONE Equipment List,                !- Name
  AirTerminal:SingleDuct:Uncontrolled,    !- Zone Equipment Object Type 1
  Air Terminal Single Duct Uncontrolled 1, !- Zone Equipment Name 1
  1,                                      !- Zone Equipment Cooling Sequence 1
  1;                                      !- Zone Equipment Heating or No-Load Sequence 1

Sizing:Zone,
  ZONE ONE,                               !- Zone or ZoneList Name
  SupplyAirTemperature,                   !- Zone Cooling Design Supply Air Temperature Input Method
  14,                                     !- Zone Cooling Design Supply Air Temperature {C}
  11.11,                                  !- Zone Cooling Design Supply Air Temperature Difference {deltaC}
  SupplyAirTemperature,                   !- Zone Heating Design Supply Air Temperature Input Method
  40,                                     !- Zone Heating Design Supply Air Temperature {C}
  11.11,                                  !- Zone Heating Design Supply Air Temperature Difference {deltaC}
  0.0085,                                 !- Zone Cooling Design Supply Air Humidity Ratio {kgWater/kgDryAir}
  0.008,                                  !- Zone Heating Design Supply Air Humidity Ratio {kgWater/kgDryAir}
  oa_gen,                                 !- Design Specification Outdoor Air Object Name
  ,                                       !- Zone Heating Sizing Factor
  ,                                       !- Zone Cooling Sizing Factor
  DesignDay,                              !- Cooling Design Air Flow Method
  0,                                      !- Cooling Design Air Flow Rate {m3/s}
  0.000762,                               !- Cooling Minimum Air Flow per Zone Floor Area {m3/s-m2}
  0,                                      !- Cooling Minimum Air Flow {m3/s}
  0,                                      !- Cooling Minimum Air Flow Fraction
  DesignDay,                              !- Heating Design Air Flow Method
  0,                                      !- Heating Design Air Flow Rate {m3/s}
  0.002032,                               !- Heating Maximum Air Flow per Zone Floor Area {m3/s-m2}
  0.1415762,                              !- Heating Maximum Air Flow {m3/s}
  0.3,                                    !- Heating Maximum Air Flow Fraction
  ZONE ONE Design Spec Zone Air Dist,     !- Design Specification Zone Air Distribution Object Name
  No;                                     !- Account for Dedicated Outdoor Air System

DesignSpecification:ZoneAirDistribution,
  ZONE ONE Design Spec Zone Air Dist,     !- Name
  1,                                      !- Zone Air Distribution Effectiveness in Cooling Mode {dimensionless}
  1;                                      !- Zone Air Distribution Effectiveness in Heating Mode {dimensionless}

Schedule:Constant,
  Always On Discrete,                     !- Name
  OnOff,                                  !- Schedule Type Limits Name
  1;                                      !- Hourly Value

Controller:MechanicalVentilation,
  Controller Mechanical Ventilation 1,    !- Name
  Always On Discrete,                     !- Availability Schedule Name
  No,                                     !- Demand Controlled Ventilation
  ZoneSum,                                !- System Outdoor Air Method
  ,                                       !- Zone Maximum Outdoor Air Fraction {dimensionless}
  ZONE ONE,                               !- Zone Name 1
  oa_gen,                                 !- Design Specification Outdoor Air Object Name 1
  ZONE ONE Design Spec Zone Air Dist;     !- Design Specification Zone Air Distribution Object Name 1

DesignSpecification:OutdoorAir,
  oa_gen,                                 !- Name
  Sum,                                    !- Outdoor Air Method
  0,                                      !- Outdoor Air Flow per Person {m3/s-person}
  0,                                      !- Outdoor Air Flow per Zone Floor Area {m3/s-m2}
  0,                                      !- Outdoor Air Flow per Zone {m3/s}
  1.734,                                  !- Outdoor Air Flow Air Changes per Hour {1/hr}
  Always On Ruleset Fractional;           !- Outdoor Air Schedule Name

SimulationControl,
  Yes,                                    !- Do Zone Sizing Calculation
  Yes,                                    !- Do System Sizing Calculation
  No,                                     !- Do Plant Sizing Calculation
  No,                                     !- Run Simulation for Sizing Periods
  Yes;                                    !- Run Simulation for Weather File Run Periods

HeatBalanceAlgorithm,
  ConductionTransferFunction,             !- Algorithm
  200;                                    !- Surface Temperature Upper Limit {C}

RunPeriod,
  Run Period 1,                           !- Name
  1,                                      !- Begin Month
  1,                                      !- Begin Day of Month
  12,                                     !- End Month
  31,                                     !- End Day of Month
  Tuesday,                                !- Day of Week for Start Day
  No,                                     !- Use Weather File Holidays and Special Days
  No,                                     !- Use Weather File Daylight Saving Period