
OS:Version,
  {39408617-3dec-48e0-aab9-ce27e8abd11a}, !- Handle
  1.12.0;                                 !- Version Identifier

OS:Surface,
  {e9b50c0a-a873-47b6-8598-0d66cc0a5b43}, !- Handle
  ZONE SURFACE WEST,                      !- Name
  Wall,                                   !- Surface Type
  {3765fd7e-5ebe-46c6-b7aa-053577aa3b93}, !- Construction Name
  {fdfe5b2e-b1c6-4dc5-b4a9-f861619493f8}, !- Space Name
  Outdoors,                               !- Outside Boundary Condition
  ,                                       !- Outside Boundary Condition Object
  SunExposed,                             !- Sun Exposure
  WindExposed,                            !- Wind Exposure
  0,                                      !- View Factor to Ground
  ,                                       !- Number of Vertices
  0, 6, 2.7,                              !- X,Y,Z Vertex 1 {m}
  0, 6, 0,                                !- X,Y,Z Vertex 2 {m}
  0, 0, 0,                                !- X,Y,Z Vertex 3 {m}
  0, 0, 2.7;                              !- X,Y,Z Vertex 4 {m}

OS:Construction,
  {3765fd7e-5ebe-46c6-b7aa-053577aa3b93}, !- Handle
  WALL-FLOOR,                             !- Name
  ,                                       !- Surface Rendering Name
  {8900e711-2158-45b0-9030-be4a91cd3a43}; !- Layer 1

OS:Material:NoMass,
  {8900e711-2158-45b0-9030-be4a91cd3a43}, !- Handle
  INSULATION-Wall-Floor,                  !- Name
  VerySmooth,                             !- Roughness
  100,                                    !- Thermal Resistance {m2-K/W}
  1e-07,                                  !- Thermal Absorptance
  0,                                      !- Solar Absorptance
  0;                                      !- Visible Absorptance

OS:ThermalZone,
  {8ba4496e-2800-4e1e-84fe-36e26b675693}, !- Handle
  ZONE ONE,                               !- Name
  1,                                      !- Multiplier
  2.7,                                    !- Ceiling Height {m}
  129.6,                                  !- Volume {m3}
  ,                                       !- Floor Area {m2}
  ,                                       !- Zone Inside Convection Algorithm
  ,                                       !- Zone Outside Convection Algorithm
  ,                                       !- Zone Conditioning Equipment List Name
  {d04e4efe-a4fc-4427-9cec-6a28e42db951}, !- Zone Air Inlet Port List
  {cbbfcc37-fe15-4432-bb71-1a726db9cb22}, !- Zone Air Exhaust Port List
  {2b59e296-f5be-4633-a045-2994ec10608b}, !- Zone Air Node Name
  ,                                       !- Zone Return Air Node Name
  ,                                       !- Primary Daylighting Control Name
  ,                                       !- Fraction of Zone Controlled by Primary Daylighting Control
  ,                                       !- Secondary Daylighting Control Name
  ,                                       !- Fraction of Zone Controlled by Secondary Daylighting Control
  ,                                       !- Illuminance Map Name
  ,                                       !- Group Rendering Name
  ,                                       !- Thermostat Name
  No;                                     !- Use Ideal Air Loads

OS:Node,
  {56f9a7e3-0dfa-4c4c-9bb6-6f631930593b}, !- Handle
  {e84ce345-277a-4eee-9b04-1c9f43ba8fb5}, !- Name
  {2b59e296-f5be-4633-a045-2994ec10608b}, !- Inlet Port
  ;                                       !- Outlet Port

OS:Connection,
  {2b59e296-f5be-4633-a045-2994ec10608b}, !- Handle
  {e503dff4-1b54-4af2-8c0e-abbaa11d7ceb}, !- Name
  {8ba4496e-2800-4e1e-84fe-36e26b675693}, !- Source Object
  11,                                     !- Outlet Port
  {56f9a7e3-0dfa-4c4c-9bb6-6f631930593b}, !- Target Object
  2;                                      !- Inlet Port

OS:PortList,
  {d04e4efe-a4fc-4427-9cec-6a28e42db951}, !- Handle
  {fb26e1f7-d53d-41f8-974a-36ef415913ea}, !- Name
  {8ba4496e-2800-4e1e-84fe-36e26b675693}; !- HVAC Component

OS:PortList,
  {cbbfcc37-fe15-4432-bb71-1a726db9cb22}, !- Handle
  {fc3308df-3c18-4867-a229-3da7fce7e356}, !- Name
  {8ba4496e-2800-4e1e-84fe-36e26b675693}; !- HVAC Component

OS:Sizing:Zone,
  {244a5b5b-be2c-4bae-bdc8-f97478ab4717}, !- Handle
  {8ba4496e-2800-4e1e-84fe-36e26b675693}, !- Zone or ZoneList Name
  SupplyAirTemperature,                   !- Zone Cooling Design Supply Air Temperature Input Method
  14,                                     !- Zone Cooling Design Supply Air Temperature {C}
  11.11,                                  !- Zone Cooling Design Supply Air Temperature Difference {deltaC}
  SupplyAirTemperature,                   !- Zone Heating Design Supply Air Temperature Input Method
  40,                                     !- Zone Heating Design Supply Air Temperature {C}
  11.11,                                  !- Zone Heating Design Supply Air Temperature Difference {deltaC}
  0.0085,                                 !- Zone Cooling Design Supply Air Humidity Ratio {kg-H2O/kg-air}
  0.008,                                  !- Zone Heating Design Supply Air Humidity Ratio {kg-H2O/kg-air}
  ,                                       !- Zone Heating Sizing Factor
  ,                                       !- Zone Cooling Sizing Factor
  DesignDay,                              !- Cooling Design Air Flow Method
  ,                                       !- Cooling Design Air Flow Rate {m3/s}
  ,                                       !- Cooling Minimum Air Flow per Zone Floor Area {m3/s-m2}
  ,                                       !- Cooling Minimum Air Flow {m3/s}
  ,                                       !- Cooling Minimum Air Flow Fraction
  DesignDay,                              !- Heating Design Air Flow Method
  ,                                       !- Heating Design Air Flow Rate {m3/s}
  ,                                       !- Heating Maximum Air Flow per Zone Floor Area {m3/s-m2}
  ,                                       !- Heating Maximum Air Flow {m3/s}
  ,                                       !- Heating Maximum Air Flow Fraction
  ,                                       !- Design Zone Air Distribution Effectiveness in Cooling Mode
  ,                                       !- Design Zone Air Distribution Effectiveness in Heating Mode
  No,                                     !- Account for Dedicated Outdoor Air System
  NeutralSupplyAir,                       !- Dedicated Outdoor Air System Control Strategy
  autosize,                               !- Dedicated Outdoor Air Low Setpoint Temperature for Design {C}
  autosize;                               !- Dedicated Outdoor Air High Setpoint Temperature for Design {C}

OS:ZoneHVAC:EquipmentList,
  {270732e8-2690-430d-a2a0-9f375ae542de}, !- Handle
  {882da583-638a-489a-adc3-bf2972de7774}, !- Name
  {8ba4496e-2800-4e1e-84fe-36e26b675693}; !- Thermal Zone

OS:Space,
  {fdfe5b2e-b1c6-4dc5-b4a9-f861619493f8}, !- Handle
  ZONE ONE Space,                         !- Name
  ,                                       !- Space Type Name
  ,                                       !- Default Construction Set Name
  ,                                       !- Default Schedule Set Name
  0,                                      !- Direction of Relative North {deg}
  0,                                      !- X Origin {m}
  0,                                      !- Y Origin {m}
  0,                                      !- Z Origin {m}
  ,                                       !- Building Story Name
  {8ba4496e-2800-4e1e-84fe-36e26b675693}; !- Thermal Zone Name

OS:Building,
  {e23d03c6-72ed-4754-a25c-c231bfecafac}, !- Handle
  Furnace-Case HE100,                     !- Name
  ,                                       !- Building Sector Type
  0,                                      !- North Axis {deg}
  ,                                       !- Nominal Floor to Floor Height {m}
  ,                                       !- Space Type Name
  ,                                       !- Default Construction Set Name
  ;                                       !- Default Schedule Set Name

OS:SimulationControl,
  {e69cc1f6-b87b-40ee-b35b-d650c16e552b}, !- Handle
  ,                                       !- Do Zone Sizing Calculation
  ,                                       !- Do System Sizing Calculation
  ,                                       !- Do Plant Sizing Calculation
  ,                                       !- Run Simulation for Sizing Periods
  ,                                       !- Run Simulation for Weather File Run Periods
  0.04,                                   !- Loads Convergence Tolerance Value
  0.4,                                    !- Temperature Convergence Tolerance Value {deltaC}
  FullInteriorAndExterior,                !- Solar Distribution
  ,                                       !- Maximum Number of Warmup Days
  6;                                      !- Minimum Number of Warmup Days

OS:Surface,
  {36399543-e47f-4056-b8a8-015ec898060a}, !- Handle
  ZONE SURFACE ROOF,                      !- Name
  RoofCeiling,                            !- Surface Type
  {3860ce3f-a3a4-4433-a1cb-7ad18b486274}, !- Construction Name
  {fdfe5b2e-b1c6-4dc5-b4a9-f861619493f8}, !- Space Name
  Outdoors,                               !- Outside Boundary Condition
  ,                                       !- Outside Boundary Condition Object
  SunExposed,                             !- Sun Exposure
  WindExposed,                            !- Wind Exposure
  0,                                      !- View Factor to Ground
  ,                                       !- Number of Vertices
  8, 0, 2.7,                              !- X,Y,Z Vertex 1 {m}
  8, 6, 2.7,                              !- X,Y,Z Vertex 2 {m}
  0, 6, 2.7,                              !- X,Y,Z Vertex 3 {m}
  0, 0, 2.7;                              !- X,Y,Z Vertex 4 {m}

OS:Construction,
  {3860ce3f-a3a4-4433-a1cb-7ad18b486274}, !- Handle
  ROOF,                                   !- Name
  ,                                       !- Surface Rendering Name
  {190d746e-9df6-4a1f-b5bb-85ae58dd55ef}; !- Layer 1

OS:Material:NoMass,
  {190d746e-9df6-4a1f-b5bb-85ae58dd55ef}, !- Handle
  INSULATION-Roof,                        !- Name
  VerySmooth,                             !- Roughness
  0.14,                                   !- Thermal Resistance {m2-K/W}
  1e-07,                                  !- Thermal Absorptance
  0,                                      !- Solar Absorptance
  0;                                      !- Visible Absorptance

OS:Surface,
  {b713e5cc-fff6-475e-bc81-bd68fb2a3028}, !- Handle
  ZONE SURFACE FLOOR,                     !- Name
  Floor,                                  !- Surface Type
  {3765fd7e-5ebe-46c6-b7aa-053577aa3b93}, !- Construction Name
  {fdfe5b2e-b1c6-4dc5-b4a9-f861619493f8}, !- Space Name
  Outdoors,                               !- Outside Boundary Condition
  ,                                       !- Outside Boundary Condition Object
  SunExposed,                             !- Sun Exposure
  WindExposed,                            !- Wind Exposure
  0,                                      !- View Factor to Ground
  ,                                       !- Number of Vertices
  8, 6, 0,                                !- X,Y,Z Vertex 1 {m}
  8, 0, 0,                                !- X,Y,Z Vertex 2 {m}
  0, 0, 0,                                !- X,Y,Z Vertex 3 {m}
  0, 6, 0;                                !- X,Y,Z Vertex 4 {m}

OS:Surface,
  {b83187e5-c0b4-44ad-b31e-08614dcb4a0a}, !- Handle
  ZONE SURFACE EAST,                      !- Name
  Wall,                                   !- Surface Type
  {3765fd7e-5ebe-46c6-b7aa-053577aa3b93}, !- Construction Name
  {fdfe5b2e-b1c6-4dc5-b4a9-f861619493f8}, !- Space Name
  Outdoors,                               !- Outside Boundary Condition
  ,                                       !- Outside Boundary Condition Object
  SunExposed,                             !- Sun Exposure
  WindExposed,                            !- Wind Exposure
  0,                                      !- View Factor to Ground
  ,                                       !- Number of Vertices
  8, 0, 2.7,                              !- X,Y,Z Vertex 1 {m}
  8, 0, 0,                                !- X,Y,Z Vertex 2 {m}
  8, 6, 0,                                !- X,Y,Z Vertex 3 {m}
  8, 6, 2.7;                              !- X,Y,Z Vertex 4 {m}

OS:Surface,
  {32de788d-5601-4fe7-9f4f-0fca88d8fb4e}, !- Handle
  ZONE SURFACE SOUTH,                     !- Name
  Wall,                                   !- Surface Type
  {3765fd7e-5ebe-46c6-b7aa-053577aa3b93}, !- Construction Name
  {fdfe5b2e-b1c6-4dc5-b4a9-f861619493f8}, !- Space Name
  Outdoors,                               !- Outside Boundary Condition
  ,                                       !- Outside Boundary Condition Object
  SunExposed,                             !- Sun Exposure
  WindExposed,                            !- Wind Exposure
  0,                                      !- View Factor to Ground
  ,                                       !- Number of Vertices
  0, 0, 2.7,                              !- X,Y,Z Vertex 1 {m}
  0, 0, 0,                                !- X,Y,Z Vertex 2 {m}
  8, 0, 0,                                !- X,Y,Z Vertex 3 {m}
  8, 0, 2.7;                              !- X,Y,Z Vertex 4 {m}

OS:Surface,
  {fc5e840f-f652-44b1-84ba-ba1198edc094}, !- Handle
  ZONE SURFACE NORTH,                     !- Name
  Wall,                                   !- Surface Type
  {3765fd7e-5ebe-46c6-b7aa-053577aa3b93}, !- Construction Name
  {fdfe5b2e-b1c6-4dc5-b4a9-f861619493f8}, !- Space Name
  Outdoors,                               !- Outside Boundary Condition
  ,                                       !- Outside Boundary Condition Object
  SunExposed,                             !- Sun Exposure
  WindExposed,                            !- Wind Exposure
  0,                                      !- View Factor to Ground
  ,                                       !- Number of Vertices
  8, 6, 2.7,                              !- X,Y,Z Vertex 1 {m}
  8, 6, 0,                                !- X,Y,Z Vertex 2 {m}
  0, 6, 0,                                !- X,Y,Z Vertex 3 {m}
  0, 6, 2.7;                              !- X,Y,Z Vertex 4 {m}

OS:ShadowCalculation,
  {61834abd-0d17-4c6e-9e8c-0ef9ae34d0d7}, !- Handle
  1,                                      !- Calculation Frequency
  15000;                                  !- Maximum Figures in Shadow Overlap Calculations

OS:Timestep,
  {0c2d62b5-db63-4b90-b6d2-7bbf8637c1d6}, !- Handle
  4;                                      !- Number of Timesteps per Hour

OS:Site,
  {07373982-d559-450b-be39-632e2e67a350}, !- Handle
  Site 1,                                 !- Name
  ,                                       !- Latitude {deg}
  ,                                       !- Longitude {deg}
  ,                                       !- Time Zone {hr}
  ,                                       !- Elevation {m}
  ;                                       !- Terrain

OS:YearDescription,
  {4b4824f2-19c2-4e70-a24d-d888008fcf2e}; !- Handle

OS:ClimateZones,
  {66f1672a-204a-48ce-ae3b-4105563c3ded}, !- Handle
  ,                                       !- Active Institution
  ,                                       !- Active Year
  ASHRAE,                                 !- Climate Zone Institution Name 1
  ANSI/ASHRAE Standard 169,               !- Climate Zone Document Name 1
  2006,                                   !- Climate Zone Document Year 1
  ,                                       !- Climate Zone Value 1
  CEC,                                    !- Climate Zone Institution Name 2
  California Climate Zone Descriptions,   !- Climate Zone Document Name 2
  1995,                                   !- Climate Zone Document Year 2
  ;                                       !- Climate Zone Value 2

OS:Facility,
  {f72be13e-8c5f-4935-b735-6fd80e94560c}; !- Handle

OS:Sizing:Parameters,
  {77ddaecb-2c5b-43c8-aacf-38d9bf322788}, !- Handle
  1.25,                                   !- Heating Sizing Factor
  1.15;                                   !- Cooling Sizing Factor

OS:HeatBalanceAlgorithm,
  {7352a686-60b3-48c1-bf74-c594c27ba994}, !- Handle
  ConductionTransferFunction,             !- Algorithm
  200;                                    !- Surface Temperature Upper Limit {C}

OS:RunPeriod,
  {7e8a9765-a055-4359-972e-fc1f2750bfed}, !- Handle
  Run Period 1,                           !- Name
  1,                                      !- Begin Month
  1,                                      !- Begin Day of Month
  12,                                     !- End Month
  31,                                     !- End Day of Month
  ,                                       !- Use Weather File Holidays and Special Days
  ,                                       !- Use Weather File Daylight Saving Period
  ,                                       !- Apply Weekend Holiday Rule
  ,                                       !- Use Weather File Rain Indicators
  ,                                       !- Use Weather File Snow Indicators
  ;                                       !- Number of Times Runperiod to be Repeated

OS:LifeCycleCost:Parameters,
  {265ccda4-ef20-4950-999f-57010e23ce0c}, !- Handle
  ,                                       !- Analysis Type
  ,                                       !- Discounting Convention
  ,                                       !- Inflation Approach
  ,                                       !- Real Discount Rate
  ,                                       !- Nominal Discount Rate
  ,                                       !- Inflation
  ,                                       !- Base Date Month
  ,                                       !- Base Date Year
  ,                                       !- Service Date Month
  ,                                       !- Service Date Year
  ;                                       !- Length of Study Period in Years

OS:StandardsInformation:Construction,
  {3e62c528-0edb-473d-b36a-7b3dbc210713}, !- Handle
  {3860ce3f-a3a4-4433-a1cb-7ad18b486274}; !- Construction Name

OS:StandardsInformation:Construction,
  {4f8104ca-c242-4d4f-a9ff-02ef03775527}, !- Handle
  {3765fd7e-5ebe-46c6-b7aa-053577aa3b93}; !- Construction Name

OS:StandardsInformation:Material,
  {b97c5daf-c2fe-4140-8484-aa7b6245afb2}, !- Handle
  {190d746e-9df6-4a1f-b5bb-85ae58dd55ef}; !- Material Name

OS:StandardsInformation:Material,
  {8cf8a80a-7e16-4e9a-afac-10753637c088}, !- Handle
  {8900e711-2158-45b0-9030-be4a91cd3a43}; !- Material Name

