
OS:Version,
  {ec4fd9ce-d301-4c2a-8749-e64e73a80fd1}, !- Handle
  1.10.6;                                 !- Version Identifier

OS:Surface,
  {2c8d9f2e-9695-45d4-a5d2-f61d5edd28bc}, !- Handle
  ZONE SURFACE FLOOR,                     !- Name
  Floor,                                  !- Surface Type
  {4c5cde9b-9130-4128-a9c4-e882f15c4296}, !- Construction Name
  {81357159-7ade-49a0-a11e-396513c32113}, !- Space Name
  Outdoors,                               !- Outside Boundary Condition
  ,                                       !- Outside Boundary Condition Object
  SunExposed,                             !- Sun Exposure
  WindExposed,                            !- Wind Exposure
  0,                                      !- View Factor to Ground
  ,                                       !- Number of Vertices
  8, 6, 0,                                !- X,Y,Z Vertex 1 {m}
  8, 0, 0,                                !- X,Y,Z Vertex 2 {m}
  0, 0, 0,                                !- X,Y,Z Vertex 3 {m}
  0, 6, 0;                                !- X,Y,Z Vertex 4 {m}

OS:Construction,
  {4c5cde9b-9130-4128-a9c4-e882f15c4296}, !- Handle
  LTWALL,                                 !- Name
  ,                                       !- Surface Rendering Name
  {785a8880-66c7-4bf6-9801-6fff7706887a}, !- Layer 1
  {86c8b91b-4404-4a23-94ad-17bb215386ba}; !- Layer 2

OS:Material:NoMass,
  {785a8880-66c7-4bf6-9801-6fff7706887a}, !- Handle
  INSULATION-EXT,                         !- Name
  VerySmooth,                             !- Roughness
  50,                                     !- Thermal Resistance {m2-K/W}
  0.9,                                    !- Thermal Absorptance
  0.1,                                    !- Solar Absorptance
  0.1;                                    !- Visible Absorptance

OS:Material:NoMass,
  {86c8b91b-4404-4a23-94ad-17bb215386ba}, !- Handle
  INSULATION-INT,                         !- Name
  VerySmooth,                             !- Roughness
  50,                                     !- Thermal Resistance {m2-K/W}
  0.9,                                    !- Thermal Absorptance
  0.6,                                    !- Solar Absorptance
  0.6;                                    !- Visible Absorptance

OS:ThermalZone,
  {f7ebe103-90c3-4224-b9e5-95c4df400d11}, !- Handle
  ZONE ONE,                               !- Name
  1,                                      !- Multiplier
  2.7,                                    !- Ceiling Height {m}
  129.6,                                  !- Volume {m3}
  ,                                       !- Floor Area {m2}
  ,                                       !- Zone Inside Convection Algorithm
  ,                                       !- Zone Outside Convection Algorithm
  ,                                       !- Zone Conditioning Equipment List Name
  {d1df68fe-25c3-4574-8ddb-2f04a5af6f53}, !- Zone Air Inlet Port List
  {083d15c1-b46d-415c-9e48-a02c1b1e81e3}, !- Zone Air Exhaust Port List
  {6f9843fa-263a-4b50-b853-6455f9aaa490}, !- Zone Air Node Name
  ,                                       !- Zone Return Air Node Name
  ,                                       !- Primary Daylighting Control Name
  ,                                       !- Fraction of Zone Controlled by Primary Daylighting Control
  ,                                       !- Secondary Daylighting Control Name
  ,                                       !- Fraction of Zone Controlled by Secondary Daylighting Control
  ,                                       !- Illuminance Map Name
  ,                                       !- Group Rendering Name
  ,                                       !- Thermostat Name
  No;                                     !- Use Ideal Air Loads

OS:Node,
  {8391c75b-0816-47b1-a3b2-b7c0daaa87a5}, !- Handle
  {988ecfd9-d247-4e78-ac3e-f971eab66e4f}, !- Name
  {6f9843fa-263a-4b50-b853-6455f9aaa490}, !- Inlet Port
  ;                                       !- Outlet Port

OS:Connection,
  {6f9843fa-263a-4b50-b853-6455f9aaa490}, !- Handle
  {0a7afe50-de78-4db9-9e59-61f4c4fbe75d}, !- Name
  {f7ebe103-90c3-4224-b9e5-95c4df400d11}, !- Source Object
  11,                                     !- Outlet Port
  {8391c75b-0816-47b1-a3b2-b7c0daaa87a5}, !- Target Object
  2;                                      !- Inlet Port

OS:PortList,
  {d1df68fe-25c3-4574-8ddb-2f04a5af6f53}, !- Handle
  {63dec800-02ac-4f50-8748-d08e6f38c340}, !- Name
  {f7ebe103-90c3-4224-b9e5-95c4df400d11}; !- HVAC Component

OS:PortList,
  {083d15c1-b46d-415c-9e48-a02c1b1e81e3}, !- Handle
  {6a40b447-b935-438b-9375-dd7cca13e780}, !- Name
  {f7ebe103-90c3-4224-b9e5-95c4df400d11}; !- HVAC Component

OS:Sizing:Zone,
  {78f3ca6e-4016-4a95-b70d-d7ed99898201}, !- Handle
  {f7ebe103-90c3-4224-b9e5-95c4df400d11}, !- Zone or ZoneList Name
  SupplyAirTemperature,                   !- Zone Cooling Design Supply Air Temperature Input Method
  14,                                     !- Zone Cooling Design Supply Air Temperature {C}
  11.11,                                  !- Zone Cooling Design Supply Air Temperature Difference {deltaC}
  SupplyAirTemperature,                   !- Zone Heating Design Supply Air Temperature Input Method
  40,                                     !- Zone Heating Design Supply Air Temperature {C}
  11.11,                                  !- Zone Heating Design Supply Air Temperature Difference {deltaC}
  0.0085,                                 !- Zone Cooling Design Supply Air Humidity Ratio {kg-H2O/kg-air}
  0.008,                                  !- Zone Heating Design Supply Air Humidity Ratio {kg-H2O/kg-air}
  ,                                       !- Zone Heating Sizing Factor
  ,                                       !- Zone Cooling Sizing Factor
  DesignDay,                              !- Cooling Design Air Flow Method
  ,                                       !- Cooling Design Air Flow Rate {m3/s}
  ,                                       !- Cooling Minimum Air Flow per Zone Floor Area {m3/s-m2}
  ,                                       !- Cooling Minimum Air Flow {m3/s}
  ,                                       !- Cooling Minimum Air Flow Fraction
  DesignDay,                              !- Heating Design Air Flow Method
  ,                                       !- Heating Design Air Flow Rate {m3/s}
  ,                                       !- Heating Maximum Air Flow per Zone Floor Area {m3/s-m2}
  ,                                       !- Heating Maximum Air Flow {m3/s}
  ,                                       !- Heating Maximum Air Flow Fraction
  ,                                       !- Design Zone Air Distribution Effectiveness in Cooling Mode
  ,                                       !- Design Zone Air Distribution Effectiveness in Heating Mode
  No,                                     !- Account for Dedicated Outdoor Air System
  NeutralSupplyAir,                       !- Dedicated Outdoor Air System Control Strategy
  autosize,                               !- Dedicated Outdoor Air Low Setpoint Temperature for Design {C}
  autosize;                               !- Dedicated Outdoor Air High Setpoint Temperature for Design {C}

OS:ZoneHVAC:EquipmentList,
  {2de9527e-e80c-4966-a438-51b7b8ecd2e3}, !- Handle
  {afa47593-5f9f-465c-b5ac-87c7ba5b8ffb}, !- Name
  {f7ebe103-90c3-4224-b9e5-95c4df400d11}; !- Thermal Zone

OS:Space,
  {81357159-7ade-49a0-a11e-396513c32113}, !- Handle
  ZONE ONE Space,                         !- Name
  ,                                       !- Space Type Name
  ,                                       !- Default Construction Set Name
  ,                                       !- Default Schedule Set Name
  0,                                      !- Direction of Relative North {deg}
  0,                                      !- X Origin {m}
  0,                                      !- Y Origin {m}
  0,                                      !- Z Origin {m}
  ,                                       !- Building Story Name
  {f7ebe103-90c3-4224-b9e5-95c4df400d11}; !- Thermal Zone Name

OS:Surface,
  {778bf559-fe88-4cf8-8584-5207ddd3d138}, !- Handle
  ZONE SURFACE SOUTH,                     !- Name
  Wall,                                   !- Surface Type
  {4c5cde9b-9130-4128-a9c4-e882f15c4296}, !- Construction Name
  {81357159-7ade-49a0-a11e-396513c32113}, !- Space Name
  Outdoors,                               !- Outside Boundary Condition
  ,                                       !- Outside Boundary Condition Object
  SunExposed,                             !- Sun Exposure
  WindExposed,                            !- Wind Exposure
  0.5,                                    !- View Factor to Ground
  ,                                       !- Number of Vertices
  0, 0, 2.7,                              !- X,Y,Z Vertex 1 {m}
  0, 0, 0,                                !- X,Y,Z Vertex 2 {m}
  8, 0, 0,                                !- X,Y,Z Vertex 3 {m}
  8, 0, 2.7;                              !- X,Y,Z Vertex 4 {m}

OS:Building,
  {3be39076-0b97-4774-aadb-80eed2fc7c2f}, !- Handle
  Test Case CE100,                        !- Name
  ,                                       !- Building Sector Type
  0,                                      !- North Axis {deg}
  ,                                       !- Nominal Floor to Floor Height {m}
  ,                                       !- Space Type Name
  ,                                       !- Default Construction Set Name
  ;                                       !- Default Schedule Set Name

OS:SimulationControl,
  {a5668d03-b46c-488b-98c7-396745cde3b1}, !- Handle
  ,                                       !- Do Zone Sizing Calculation
  ,                                       !- Do System Sizing Calculation
  ,                                       !- Do Plant Sizing Calculation
  ,                                       !- Run Simulation for Sizing Periods
  ,                                       !- Run Simulation for Weather File Run Periods
  0.039999999,                            !- Loads Convergence Tolerance Value
  0.0040000002,                           !- Temperature Convergence Tolerance Value {deltaC}
  FullInteriorAndExterior,                !- Solar Distribution
  ,                                       !- Maximum Number of Warmup Days
  6;                                      !- Minimum Number of Warmup Days

OS:Surface,
  {48724499-6004-4848-8c26-b0a27f80bd16}, !- Handle
  ZONE SURFACE WEST,                      !- Name
  Wall,                                   !- Surface Type
  {4c5cde9b-9130-4128-a9c4-e882f15c4296}, !- Construction Name
  {81357159-7ade-49a0-a11e-396513c32113}, !- Space Name
  Outdoors,                               !- Outside Boundary Condition
  ,                                       !- Outside Boundary Condition Object
  SunExposed,                             !- Sun Exposure
  WindExposed,                            !- Wind Exposure
  0.5,                                    !- View Factor to Ground
  ,                                       !- Number of Vertices
  0, 6, 2.7,                              !- X,Y,Z Vertex 1 {m}
  0, 6, 0,                                !- X,Y,Z Vertex 2 {m}
  0, 0, 0,                                !- X,Y,Z Vertex 3 {m}
  0, 0, 2.7;                              !- X,Y,Z Vertex 4 {m}

OS:Surface,
  {c61d80a4-8a18-4a60-b512-7dd305dcbab7}, !- Handle
  ZONE SURFACE NORTH,                     !- Name
  Wall,                                   !- Surface Type
  {4c5cde9b-9130-4128-a9c4-e882f15c4296}, !- Construction Name
  {81357159-7ade-49a0-a11e-396513c32113}, !- Space Name
  Outdoors,                               !- Outside Boundary Condition
  ,                                       !- Outside Boundary Condition Object
  SunExposed,                             !- Sun Exposure
  WindExposed,                            !- Wind Exposure
  0.5,                                    !- View Factor to Ground
  ,                                       !- Number of Vertices
  8, 6, 2.7,                              !- X,Y,Z Vertex 1 {m}
  8, 6, 0,                                !- X,Y,Z Vertex 2 {m}
  0, 6, 0,                                !- X,Y,Z Vertex 3 {m}
  0, 6, 2.7;                              !- X,Y,Z Vertex 4 {m}

OS:Surface,
  {81e32448-e860-42a3-86c7-cdc8067e6ed8}, !- Handle
  ZONE SURFACE ROOF,                      !- Name
  RoofCeiling,                            !- Surface Type
  {4c5cde9b-9130-4128-a9c4-e882f15c4296}, !- Construction Name
  {81357159-7ade-49a0-a11e-396513c32113}, !- Space Name
  Outdoors,                               !- Outside Boundary Condition
  ,                                       !- Outside Boundary Condition Object
  SunExposed,                             !- Sun Exposure
  WindExposed,                            !- Wind Exposure
  0,                                      !- View Factor to Ground
  ,                                       !- Number of Vertices
  8, 0, 2.7,                              !- X,Y,Z Vertex 1 {m}
  8, 6, 2.7,                              !- X,Y,Z Vertex 2 {m}
  0, 6, 2.7,                              !- X,Y,Z Vertex 3 {m}
  0, 0, 2.7;                              !- X,Y,Z Vertex 4 {m}

OS:Surface,
  {b9a0fc98-ba84-4ced-a2b1-fab472fccb6b}, !- Handle
  ZONE SURFACE EAST,                      !- Name
  Wall,                                   !- Surface Type
  {4c5cde9b-9130-4128-a9c4-e882f15c4296}, !- Construction Name
  {81357159-7ade-49a0-a11e-396513c32113}, !- Space Name
  Outdoors,                               !- Outside Boundary Condition
  ,                                       !- Outside Boundary Condition Object
  SunExposed,                             !- Sun Exposure
  WindExposed,                            !- Wind Exposure
  0.5,                                    !- View Factor to Ground
  ,                                       !- Number of Vertices
  8, 0, 2.7,                              !- X,Y,Z Vertex 1 {m}
  8, 0, 0,                                !- X,Y,Z Vertex 2 {m}
  8, 6, 0,                                !- X,Y,Z Vertex 3 {m}
  8, 6, 2.7;                              !- X,Y,Z Vertex 4 {m}

OS:Site,
  {4dae398f-9b6b-4a3e-a6b4-c9150d21f652}, !- Handle
  Site 1,                                 !- Name
  ,                                       !- Latitude {deg}
  ,                                       !- Longitude {deg}
  ,                                       !- Time Zone {hr}
  ,                                       !- Elevation {m}
  ;                                       !- Terrain

OS:YearDescription,
  {87213e5e-84a6-45ff-b58b-9cdba29a0855}; !- Handle

OS:ClimateZones,
  {3012b313-0133-4a4c-932c-785fc168ea4a}, !- Handle
  ,                                       !- Active Institution
  ,                                       !- Active Year
  ASHRAE,                                 !- Climate Zone Institution Name 1
  ANSI/ASHRAE Standard 169,               !- Climate Zone Document Name 1
  2006,                                   !- Climate Zone Document Year 1
  ,                                       !- Climate Zone Value 1
  CEC,                                    !- Climate Zone Institution Name 2
  California Climate Zone Descriptions,   !- Climate Zone Document Name 2
  1995,                                   !- Climate Zone Document Year 2
  ;                                       !- Climate Zone Value 2

OS:Facility,
  {e7705056-25cd-4cd3-a85e-ede100b05d73}; !- Handle

OS:Sizing:Parameters,
  {a289e98e-7fa2-47ea-9358-caec6fb58210}, !- Handle
  1.25,                                   !- Heating Sizing Factor
  1.15;                                   !- Cooling Sizing Factor

OS:Timestep,
  {8090eea1-a8be-49be-a390-b1a661eddf50}, !- Handle
  6;                                      !- Number of Timesteps per Hour

OS:ShadowCalculation,
  {4f6d2a61-3575-4638-aa19-c9b3f2f43c83}, !- Handle
  20,                                     !- Calculation Frequency
  15000;                                  !- Maximum Figures in Shadow Overlap Calculations

OS:HeatBalanceAlgorithm,
  {cec16f14-3b58-4c93-9a81-a0bbcf089db4}, !- Handle
  ConductionTransferFunction,             !- Algorithm
  200;                                    !- Surface Temperature Upper Limit {C}

OS:RunPeriod,
  {c189c849-6ca0-47c6-8809-96c7b6dae248}, !- Handle
  Run Period 1,                           !- Name
  1,                                      !- Begin Month
  1,                                      !- Begin Day of Month
  12,                                     !- End Month
  31,                                     !- End Day of Month
  ,                                       !- Use Weather File Holidays and Special Days
  ,                                       !- Use Weather File Daylight Saving Period
  ,                                       !- Apply Weekend Holiday Rule
  ,                                       !- Use Weather File Rain Indicators
  ,                                       !- Use Weather File Snow Indicators
  ;                                       !- Number of Times Runperiod to be Repeated

OS:LifeCycleCost:Parameters,
  {6313de95-f55c-4fc5-846d-5fe2bde67c11}, !- Handle
  ,                                       !- Analysis Type
  ,                                       !- Discounting Convention
  ,                                       !- Inflation Approach
  ,                                       !- Real Discount Rate
  ,                                       !- Nominal Discount Rate
  ,                                       !- Inflation
  ,                                       !- Base Date Month
  ,                                       !- Base Date Year
  ,                                       !- Service Date Month
  ,                                       !- Service Date Year
  ;                                       !- Length of Study Period in Years

