
OS:Version,
  {f45d98d2-d4b0-4a1f-a736-396da0f0405d}, !- Handle
  1.10.6;                                 !- Version Identifier

OS:Site,
  {569920ef-9562-4d2d-b208-19c9494ac2a1}, !- Handle
  NEW ORLEANS,                            !- Name
  30,                                     !- Latitude {deg}
  -90.3,                                  !- Longitude {deg}
  -6,                                     !- Time Zone {hr}
  3,                                      !- Elevation {m}
  Country;                                !- Terrain

OS:Output:Variable,
  {e1816870-ccc8-4746-8cda-abff55a5b1dc}, !- Handle
  {57c426e2-b11b-4444-a7a0-eba25a4cb410}, !- Name
  *,                                      !- Key Value
  System Node Temperature,                !- Variable Name
  Hourly;                                 !- Reporting Frequency

OS:ThermalZone,
  {74e9d05b-92bc-4770-804e-fd453cccf94c}, !- Handle
  ZONE ONE,                               !- Name
  1,                                      !- Multiplier
  3,                                      !- Ceiling Height {m}
  588,                                    !- Volume {m3}
  ,                                       !- Floor Area {m2}
  ,                                       !- Zone Inside Convection Algorithm
  ,                                       !- Zone Outside Convection Algorithm
  ,                                       !- Zone Conditioning Equipment List Name
  {43570248-1aa9-47d6-8047-eb797baf4b15}, !- Zone Air Inlet Port List
  {c48485f4-f10e-4e1c-bd10-3cee25d7b37d}, !- Zone Air Exhaust Port List
  {0d5c155e-155d-43a9-83e1-5bb039fa3483}, !- Zone Air Node Name
  ,                                       !- Zone Return Air Node Name
  ,                                       !- Primary Daylighting Control Name
  ,                                       !- Fraction of Zone Controlled by Primary Daylighting Control
  ,                                       !- Secondary Daylighting Control Name
  ,                                       !- Fraction of Zone Controlled by Secondary Daylighting Control
  ,                                       !- Illuminance Map Name
  {ae282e33-3c83-41ae-84e2-79103d095cb2}, !- Group Rendering Name
  ,                                       !- Thermostat Name
  No;                                     !- Use Ideal Air Loads

OS:Node,
  {75c68654-fe3b-4fa1-9cce-5e470472e5a1}, !- Handle
  {27e08e02-8677-4860-a93e-cb85f00a2e8a}, !- Name
  {0d5c155e-155d-43a9-83e1-5bb039fa3483}, !- Inlet Port
  ;                                       !- Outlet Port

OS:Connection,
  {0d5c155e-155d-43a9-83e1-5bb039fa3483}, !- Handle
  {6d1a4fa6-916f-454c-855a-b9259f0469b0}, !- Name
  {74e9d05b-92bc-4770-804e-fd453cccf94c}, !- Source Object
  11,                                     !- Outlet Port
  {75c68654-fe3b-4fa1-9cce-5e470472e5a1}, !- Target Object
  2;                                      !- Inlet Port

OS:PortList,
  {43570248-1aa9-47d6-8047-eb797baf4b15}, !- Handle
  {303a3274-09f8-4051-bdcc-51eb123f0924}, !- Name
  {74e9d05b-92bc-4770-804e-fd453cccf94c}; !- HVAC Component

OS:PortList,
  {c48485f4-f10e-4e1c-bd10-3cee25d7b37d}, !- Handle
  {c4fb3b68-5e3d-4485-954c-3f6824e0f71f}, !- Name
  {74e9d05b-92bc-4770-804e-fd453cccf94c}; !- HVAC Component

OS:Sizing:Zone,
  {bb147a8d-fa42-4e74-8f50-73c8f29969e9}, !- Handle
  {74e9d05b-92bc-4770-804e-fd453cccf94c}, !- Zone or ZoneList Name
  SupplyAirTemperature,                   !- Zone Cooling Design Supply Air Temperature Input Method
  14,                                     !- Zone Cooling Design Supply Air Temperature {C}
  11.11,                                  !- Zone Cooling Design Supply Air Temperature Difference {deltaC}
  SupplyAirTemperature,                   !- Zone Heating Design Supply Air Temperature Input Method
  40,                                     !- Zone Heating Design Supply Air Temperature {C}
  11.11,                                  !- Zone Heating Design Supply Air Temperature Difference {deltaC}
  0.0085,                                 !- Zone Cooling Design Supply Air Humidity Ratio {kg-H2O/kg-air}
  0.008,                                  !- Zone Heating Design Supply Air Humidity Ratio {kg-H2O/kg-air}
  ,                                       !- Zone Heating Sizing Factor
  ,                                       !- Zone Cooling Sizing Factor
  DesignDay,                              !- Cooling Design Air Flow Method
  ,                                       !- Cooling Design Air Flow Rate {m3/s}
  ,                                       !- Cooling Minimum Air Flow per Zone Floor Area {m3/s-m2}
  ,                                       !- Cooling Minimum Air Flow {m3/s}
  ,                                       !- Cooling Minimum Air Flow Fraction
  DesignDay,                              !- Heating Design Air Flow Method
  ,                                       !- Heating Design Air Flow Rate {m3/s}
  ,                                       !- Heating Maximum Air Flow per Zone Floor Area {m3/s-m2}
  ,                                       !- Heating Maximum Air Flow {m3/s}
  ,                                       !- Heating Maximum Air Flow Fraction
  ,                                       !- Design Zone Air Distribution Effectiveness in Cooling Mode
  ,                                       !- Design Zone Air Distribution Effectiveness in Heating Mode
  No,                                     !- Account for Dedicated Outdoor Air System
  NeutralSupplyAir,                       !- Dedicated Outdoor Air System Control Strategy
  autosize,                               !- Dedicated Outdoor Air Low Setpoint Temperature for Design {C}
  autosize;                               !- Dedicated Outdoor Air High Setpoint Temperature for Design {C}

OS:ZoneHVAC:EquipmentList,
  {51179b62-1b7d-445a-b229-3a5c1856f7be}, !- Handle
  {b18d72bb-dbbc-4d52-a665-7f83829b339a}, !- Name
  {74e9d05b-92bc-4770-804e-fd453cccf94c}; !- Thermal Zone

OS:Space,
  {5ac7f44e-9455-4176-87c0-2e211dfc86c9}, !- Handle
  ZONE ONE Space,                         !- Name
  ,                                       !- Space Type Name
  ,                                       !- Default Construction Set Name
  ,                                       !- Default Schedule Set Name
  0,                                      !- Direction of Relative North {deg}
  0,                                      !- X Origin {m}
  0,                                      !- Y Origin {m}
  0,                                      !- Z Origin {m}
  ,                                       !- Building Story Name
  {74e9d05b-92bc-4770-804e-fd453cccf94c}; !- Thermal Zone Name

OS:Schedule:Year,
  {3f03f442-d317-4d77-a0d3-c63cc5598e34}, !- Handle
  Sch 2,                                  !- Name
  {144ed40e-6dc3-4ffe-8727-1c9fea77b966}, !- Schedule Type Limits Name
  3,                                      !- Month 1
  10,                                     !- Day 1
  {aab3cfe5-90eb-4f18-83c1-f6ea2bab8072}, !- Week Schedule Until Date 1
  4,                                      !- Month 2
  10,                                     !- Day 2
  {9cee1762-5f74-4104-bf64-0d3e387ecc7f}, !- Week Schedule Until Date 2
  4,                                      !- Month 3
  11,                                     !- Day 3
  {aab3cfe5-90eb-4f18-83c1-f6ea2bab8072}, !- Week Schedule Until Date 3
  4,                                      !- Month 4
  20,                                     !- Day 4
  {11b03f3e-22de-4ecf-996b-9328e70a6584}, !- Week Schedule Until Date 4
  10,                                     !- Month 5
  12,                                     !- Day 5
  {299566e7-bab2-44c1-b2c3-2d3257c9626f}, !- Week Schedule Until Date 5
  10,                                     !- Month 6
  18,                                     !- Day 6
  {5f94ad77-4a1a-4a4c-88e0-2d05ea445f00}, !- Week Schedule Until Date 6
  11,                                     !- Month 7
  5,                                      !- Day 7
  {299566e7-bab2-44c1-b2c3-2d3257c9626f}, !- Week Schedule Until Date 7
  12,                                     !- Month 8
  31,                                     !- Day 8
  {aab3cfe5-90eb-4f18-83c1-f6ea2bab8072}; !- Week Schedule Until Date 8

OS:ScheduleTypeLimits,
  {144ed40e-6dc3-4ffe-8727-1c9fea77b966}, !- Handle
  Fraction,                               !- Name
  0,                                      !- Lower Limit Value
  1,                                      !- Upper Limit Value
  Continuous;                             !- Numeric Type

OS:Schedule:Week,
  {aab3cfe5-90eb-4f18-83c1-f6ea2bab8072}, !- Handle
  Week Sch 11,                            !- Name
  ,                                       !- Schedule Rendering Name
  {d4faa3e3-e331-46af-a509-35f5b409db6b}, !- Sunday Schedule:Day Name
  {d4faa3e3-e331-46af-a509-35f5b409db6b}, !- Monday Schedule:Day Name
  {d4faa3e3-e331-46af-a509-35f5b409db6b}, !- Tuesday Schedule:Day Name
  {d4faa3e3-e331-46af-a509-35f5b409db6b}, !- Wednesday Schedule:Day Name
  {d4faa3e3-e331-46af-a509-35f5b409db6b}, !- Thursday Schedule:Day Name
  {d4faa3e3-e331-46af-a509-35f5b409db6b}, !- Friday Schedule:Day Name
  {d4faa3e3-e331-46af-a509-35f5b409db6b}, !- Saturday Schedule:Day Name
  {d4faa3e3-e331-46af-a509-35f5b409db6b}, !- Holiday Schedule:Day Name
  {d4faa3e3-e331-46af-a509-35f5b409db6b}, !- SummerDesignDay Schedule:Day Name
  {d4faa3e3-e331-46af-a509-35f5b409db6b}, !- WinterDesignDay Schedule:Day Name
  {d4faa3e3-e331-46af-a509-35f5b409db6b}, !- CustomDay1 Schedule:Day Name
  {d4faa3e3-e331-46af-a509-35f5b409db6b}; !- CustomDay2 Schedule:Day Name

OS:Schedule:Day,
  {d4faa3e3-e331-46af-a509-35f5b409db6b}, !- Handle
  Day Sch 11,                             !- Name
  {144ed40e-6dc3-4ffe-8727-1c9fea77b966}, !- Schedule Type Limits Name
  ,                                       !- Interpolate to Timestep
  1,                                      !- Hour 1
  0,                                      !- Minute 1
  0,                                      !- Value Until Time 1
  2,                                      !- Hour 2
  0,                                      !- Minute 2
  0,                                      !- Value Until Time 2
  3,                                      !- Hour 3
  0,                                      !- Minute 3
  0,                                      !- Value Until Time 3
  4,                                      !- Hour 4
  0,                                      !- Minute 4
  0,                                      !- Value Until Time 4
  5,                                      !- Hour 5
  0,                                      !- Minute 5
  0,                                      !- Value Until Time 5
  6,                                      !- Hour 6
  0,                                      !- Minute 6
  0,                                      !- Value Until Time 6
  7,                                      !- Hour 7
  0,                                      !- Minute 7
  0,                                      !- Value Until Time 7
  8,                                      !- Hour 8
  0,                                      !- Minute 8
  0,                                      !- Value Until Time 8
  9,                                      !- Hour 9
  0,                                      !- Minute 9
  0.25,                                   !- Value Until Time 9
  10,                                     !- Hour 10
  0,                                      !- Minute 10
  0.25,                                   !- Value Until Time 10
  11,                                     !- Hour 11
  0,                                      !- Minute 11
  0.25,                                   !- Value Until Time 11
  12,                                     !- Hour 12
  0,                                      !- Minute 12
  0.25,                                   !- Value Until Time 12
  13,                                     !- Hour 13
  0,                                      !- Minute 13
  0.25,                                   !- Value Until Time 13
  14,                                     !- Hour 14
  0,                                      !- Minute 14
  0.25,                                   !- Value Until Time 14
  15,                                     !- Hour 15
  0,                                      !- Minute 15
  0.25,                                   !- Value Until Time 15
  16,                                     !- Hour 16
  0,                                      !- Minute 16
  0.25,                                   !- Value Until Time 16
  17,                                     !- Hour 17
  0,                                      !- Minute 17
  0.25,                                   !- Value Until Time 17
  18,                                     !- Hour 18
  0,                                      !- Minute 18
  0.25,                                   !- Value Until Time 18
  19,                                     !- Hour 19
  0,                                      !- Minute 19
  0.25,                                   !- Value Until Time 19
  20,                                     !- Hour 20
  0,                                      !- Minute 20
  0.25,                                   !- Value Until Time 20
  21,                                     !- Hour 21
  0,                                      !- Minute 21
  0,                                      !- Value Until Time 21
  22,                                     !- Hour 22
  0,                                      !- Minute 22
  0,                                      !- Value Until Time 22
  23,                                     !- Hour 23
  0,                                      !- Minute 23
  0,                                      !- Value Until Time 23
  24,                                     !- Hour 24
  0,                                      !- Minute 24
  0;                                      !- Value Until Time 24

OS:YearDescription,
  {8a278a72-5bff-43ac-a5ce-6213fcee7cd0}; !- Handle

OS:Schedule:Week,
  {9cee1762-5f74-4104-bf64-0d3e387ecc7f}, !- Handle
  Week Sch 12,                            !- Name
  ,                                       !- Schedule Rendering Name
  {dbd1f984-7688-4f58-a7a4-d6ae42af004a}, !- Sunday Schedule:Day Name
  {dbd1f984-7688-4f58-a7a4-d6ae42af004a}, !- Monday Schedule:Day Name
  {dbd1f984-7688-4f58-a7a4-d6ae42af004a}, !- Tuesday Schedule:Day Name
  {dbd1f984-7688-4f58-a7a4-d6ae42af004a}, !- Wednesday Schedule:Day Name
  {dbd1f984-7688-4f58-a7a4-d6ae42af004a}, !- Thursday Schedule:Day Name
  {dbd1f984-7688-4f58-a7a4-d6ae42af004a}, !- Friday Schedule:Day Name
  {dbd1f984-7688-4f58-a7a4-d6ae42af004a}, !- Saturday Schedule:Day Name
  {dbd1f984-7688-4f58-a7a4-d6ae42af004a}, !- Holiday Schedule:Day Name
  {dbd1f984-7688-4f58-a7a4-d6ae42af004a}, !- SummerDesignDay Schedule:Day Name
  {dbd1f984-7688-4f58-a7a4-d6ae42af004a}, !- WinterDesignDay Schedule:Day Name
  {dbd1f984-7688-4f58-a7a4-d6ae42af004a}, !- CustomDay1 Schedule:Day Name
  {dbd1f984-7688-4f58-a7a4-d6ae42af004a}; !- CustomDay2 Schedule:Day Name

OS:Schedule:Day,
  {dbd1f984-7688-4f58-a7a4-d6ae42af004a}, !- Handle
  Day Sch 12,                             !- Name
  {144ed40e-6dc3-4ffe-8727-1c9fea77b966}, !- Schedule Type Limits Name
  ,                                       !- Interpolate to Timestep
  1,                                      !- Hour 1
  0,                                      !- Minute 1
  0,                                      !- Value Until Time 1
  2,                                      !- Hour 2
  0,                                      !- Minute 2
  0,                                      !- Value Until Time 2
  3,                                      !- Hour 3
  0,                                      !- Minute 3
  0,                                      !- Value Until Time 3
  4,                                      !- Hour 4
  0,                                      !- Minute 4
  0,                                      !- Value Until Time 4
  5,                                      !- Hour 5
  0,                                      !- Minute 5
  0,                                      !- Value Until Time 5
  6,                                      !- Hour 6
  0,                                      !- Minute 6
  0,                                      !- Value Until Time 6
  7,                                      !- Hour 7
  0,                                      !- Minute 7
  0,                                      !- Value Until Time 7
  8,                                      !- Hour 8
  0,                                      !- Minute 8
  0,                                      !- Value Until Time 8
  9,                                      !- Hour 9
  0,                                      !- Minute 9
  0,                                      !- Value Until Time 9
  10,                                     !- Hour 10
  0,                                      !- Minute 10
  1,                                      !- Value Until Time 10
  11,                                     !- Hour 11
  0,                                      !- Minute 11
  1,                                      !- Value Until Time 11
  12,                                     !- Hour 12
  0,                                      !- Minute 12
  1,                                      !- Value Until Time 12
  13,                                     !- Hour 13
  0,                                      !- Minute 13
  1,                                      !- Value Until Time 13
  14,                                     !- Hour 14
  0,                                      !- Minute 14
  1,                                      !- Value Until Time 14
  15,                                     !- Hour 15
  0,                                      !- Minute 15
  1,                                      !- Value Until Time 15
  16,                                     !- Hour 16
  0,                                      !- Minute 16
  1,                                      !- Value Until Time 16
  17,                                     !- Hour 17
  0,                                      !- Minute 17
  1,                                      !- Value Until Time 17
  18,                                     !- Hour 18
  0,                                      !- Minute 18
  1,                                      !- Value Until Time 18
  19,                                     !- Hour 19
  0,                                      !- Minute 19
  0,                                      !- Value Until Time 19
  20,                                     !- Hour 20
  0,                                      !- Minute 20
  0,                                      !- Value Until Time 20
  21,                                     !- Hour 21
  0,                                      !- Minute 21
  0,                                      !- Value Until Time 21
  22,                                     !- Hour 22
  0,                                      !- Minute 22
  0,                                      !- Value Until Time 22
  23,                                     !- Hour 23
  0,                                      !- Minute 23
  0,                                      !- Value Until Time 23
  24,                                     !- Hour 24
  0,                                      !- Minute 24
  0;                                      !- Value Until Time 24

OS:Schedule:Week,
  {11b03f3e-22de-4ecf-996b-9328e70a6584}, !- Handle
  Week Sch 13,                            !- Name
  ,                                       !- Schedule Rendering Name
  {25f6a0b8-cd46-47b4-b668-493756cf70cd}, !- Sunday Schedule:Day Name
  {25f6a0b8-cd46-47b4-b668-493756cf70cd}, !- Monday Schedule:Day Name
  {25f6a0b8-cd46-47b4-b668-493756cf70cd}, !- Tuesday Schedule:Day Name
  {25f6a0b8-cd46-47b4-b668-493756cf70cd}, !- Wednesday Schedule:Day Name
  {25f6a0b8-cd46-47b4-b668-493756cf70cd}, !- Thursday Schedule:Day Name
  {25f6a0b8-cd46-47b4-b668-493756cf70cd}, !- Friday Schedule:Day Name
  {25f6a0b8-cd46-47b4-b668-493756cf70cd}, !- Saturday Schedule:Day Name
  {25f6a0b8-cd46-47b4-b668-493756cf70cd}, !- Holiday Schedule:Day Name
  {25f6a0b8-cd46-47b4-b668-493756cf70cd}, !- SummerDesignDay Schedule:Day Name
  {25f6a0b8-cd46-47b4-b668-493756cf70cd}, !- WinterDesignDay Schedule:Day Name
  {25f6a0b8-cd46-47b4-b668-493756cf70cd}, !- CustomDay1 Schedule:Day Name
  {25f6a0b8-cd46-47b4-b668-493756cf70cd}; !- CustomDay2 Schedule:Day Name

OS:Schedule:Day,
  {25f6a0b8-cd46-47b4-b668-493756cf70cd}, !- Handle
  Day Sch 13,                             !- Name
  {144ed40e-6dc3-4ffe-8727-1c9fea77b966}, !- Schedule Type Limits Name
  ,                                       !- Interpolate to Timestep
  1,                                      !- Hour 1
  0,                                      !- Minute 1
  0,                                      !- Value Until Time 1
  2,                                      !- Hour 2
  0,                                      !- Minute 2
  0,                                      !- Value Until Time 2
  3,                                      !- Hour 3
  0,                                      !- Minute 3
  0,                                      !- Value Until Time 3
  4,                                      !- Hour 4
  0,                                      !- Minute 4
  0,                                      !- Value Until Time 4
  5,                                      !- Hour 5
  0,                                      !- Minute 5
  0,                                      !- Value Until Time 5
  6,                                      !- Hour 6
  0,                                      !- Minute 6
  0,                                      !- Value Until Time 6
  7,                                      !- Hour 7
  0,                                      !- Minute 7
  0,                                      !- Value Until Time 7
  8,                                      !- Hour 8
  0,                                      !- Minute 8
  0,                                      !- Value Until Time 8
  9,                                      !- Hour 9
  0,                                      !- Minute 9
  1,                                      !- Value Until Time 9
  10,                                     !- Hour 10
  0,                                      !- Minute 10
  1,                                      !- Value Until Time 10
  11,                                     !- Hour 11
  0,                                      !- Minute 11
  1,                                      !- Value Until Time 11
  12,                                     !- Hour 12
  0,                                      !- Minute 12
  1,                                      !- Value Until Time 12
  13,                                     !- Hour 13
  0,                                      !- Minute 13
  1,                                      !- Value Until Time 13
  14,                                     !- Hour 14
  0,                                      !- Minute 14
  1,                                      !- Value Until Time 14
  15,                                     !- Hour 15
  0,                                      !- Minute 15
  1,                                      !- Value Until Time 15
  16,                                     !- Hour 16
  0,                                      !- Minute 16
  1,                                      !- Value Until Time 16
  17,                                     !- Hour 17
  0,                                      !- Minute 17
  1,                                      !- Value Until Time 17
  18,                                     !- Hour 18
  0,                                      !- Minute 18
  1,                                      !- Value Until Time 18
  19,                                     !- Hour 19
  0,                                      !- Minute 19
  1,                                      !- Value Until Time 19
  20,                                     !- Hour 20
  0,                                      !- Minute 20
  0,                                      !- Value Until Time 20
  21,                                     !- Hour 21
  0,                                      !- Minute 21
  0,                                      !- Value Until Time 21
  22,                                     !- Hour 22
  0,                                      !- Minute 22
  0,                                      !- Value Until Time 22
  23,                                     !- Hour 23
  0,                                      !- Minute 23
  0,                                      !- Value Until Time 23
  24,                                     !- Hour 24
  0,                                      !- Minute 24
  0;                                      !- Value Until Time 24

OS:Schedule:Week,
  {299566e7-bab2-44c1-b2c3-2d3257c9626f}, !- Handle
  Week Sch 14,                            !- Name
  ,                                       !- Schedule Rendering Name
  {54e599dd-7c85-47d6-94d9-aa96d240d2f3}, !- Sunday Schedule:Day Name
  {54e599dd-7c85-47d6-94d9-aa96d240d2f3}, !- Monday Schedule:Day Name
  {54e599dd-7c85-47d6-94d9-aa96d240d2f3}, !- Tuesday Schedule:Day Name
  {54e599dd-7c85-47d6-94d9-aa96d240d2f3}, !- Wednesday Schedule:Day Name
  {54e599dd-7c85-47d6-94d9-aa96d240d2f3}, !- Thursday Schedule:Day Name
  {54e599dd-7c85-47d6-94d9-aa96d240d2f3}, !- Friday Schedule:Day Name
  {54e599dd-7c85-47d6-94d9-aa96d240d2f3}, !- Saturday Schedule:Day Name
  {54e599dd-7c85-47d6-94d9-aa96d240d2f3}, !- Holiday Schedule:Day Name
  {54e599dd-7c85-47d6-94d9-aa96d240d2f3}, !- SummerDesignDay Schedule:Day Name
  {54e599dd-7c85-47d6-94d9-aa96d240d2f3}, !- WinterDesignDay Schedule:Day Name
  {54e599dd-7c85-47d6-94d9-aa96d240d2f3}, !- CustomDay1 Schedule:Day Name
  {54e599dd-7c85-47d6-94d9-aa96d240d2f3}; !- CustomDay2 Schedule:Day Name

OS:Schedule:Day,
  {54e599dd-7c85-47d6-94d9-aa96d240d2f3}, !- Handle
  Day Sch 14,                             !- Name
  {144ed40e-6dc3-4ffe-8727-1c9fea77b966}, !- Schedule Type Limits Name
  ,                                       !- Interpolate to Timestep
  1,                                      !- Hour 1
  0,                                      !- Minute 1
  0,                                      !- Value Until Time 1
  2,                                      !- Hour 2
  0,                                      !- Minute 2
  0,                                      !- Value Until Time 2
  3,                                      !- Hour 3
  0,                                      !- Minute 3
  0,                                      !- Value Until Time 3
  4,                                      !- Hour 4
  0,                                      !- Minute 4
  0,                                      !- Value Until Time 4
  5,                                      !- Hour 5
  0,                                      !- Minute 5
  0,                                      !- Value Until Time 5
  6,                                      !- Hour 6
  0,                                      !- Minute 6
  0,                                      !- Value Until Time 6
  7,                                      !- Hour 7
  0,                                      !- Minute 7
  0,                                      !- Value Until Time 7
  8,                                      !- Hour 8
  0,                                      !- Minute 8
  0,                                      !- Value Until Time 8
  9,                                      !- Hour 9
  0,                                      !- Minute 9
  1,                                      !- Value Until Time 9
  10,                                     !- Hour 10
  0,                                      !- Minute 10
  1,                                      !- Value Until Time 10
  11,                                     !- Hour 11
  0,                                      !- Minute 11
  1,                                      !- Value Until Time 11
  12,                                     !- Hour 12
  0,                                      !- Minute 12
  1,                                      !- Value Until Time 12
  13,                                     !- Hour 13
  0,                                      !- Minute 13
  1,                                      !- Value Until Time 13
  14,                                     !- Hour 14
  0,                                      !- Minute 14
  1,                                      !- Value Until Time 14
  15,                                     !- Hour 15
  0,                                      !- Minute 15
  1,                                      !- Value Until Time 15
  16,                                     !- Hour 16
  0,                                      !- Minute 16
  1,                                      !- Value Until Time 16
  17,                                     !- Hour 17
  0,                                      !- Minute 17
  1,                                      !- Value Until Time 17
  18,                                     !- Hour 18
  0,                                      !- Minute 18
  1,                                      !- Value Until Time 18
  19,                                     !- Hour 19
  0,                                      !- Minute 19
  1,                                      !- Value Until Time 19
  20,                                     !- Hour 20
  0,                                      !- Minute 20
  1,                                      !- Value Until Time 20
  21,                                     !- Hour 21
  0,                                      !- Minute 21
  0,                                      !- Value Until Time 21
  22,                                     !- Hour 22