
OS:Version,
  {582efe0f-a42f-4815-9bba-0a4f98d5b6dc}, !- Handle
  2.1.1;                                  !- Version Identifier

OS:Site,
  {bc874655-a927-4872-a278-1347186bb1d9}, !- Handle
  Denver-Stapleton_CO_USA,                !- Name
  39.76,                                  !- Latitude {deg}
  -104.86,                                !- Longitude {deg}
  -7,                                     !- Time Zone {hr}
  1611,                                   !- Elevation {m}
  Country;                                !- Terrain

OS:YearDescription,
  {9116ce1c-534f-4b3a-9d15-2bb1a805c7e1}, !- Handle
  ,                                       !- Calendar Year
  ;                                       !- Day of Week for Start Day

OS:ClimateZones,
  {dd268d6b-2da7-4abc-b8ad-35d0988c56cd}, !- Handle
  ,                                       !- Active Institution
  ,                                       !- Active Year
  ASHRAE,                                 !- Climate Zone Institution Name 1
  ANSI/ASHRAE Standard 169,               !- Climate Zone Document Name 1
  2006,                                   !- Climate Zone Document Year 1
  ,                                       !- Climate Zone Value 1
  CEC,                                    !- Climate Zone Institution Name 2
  California Climate Zone Descriptions,   !- Climate Zone Document Name 2
  1995,                                   !- Climate Zone Document Year 2
  ;                                       !- Climate Zone Value 2

OS:Facility,
  {01cd2b0a-8ee0-4ab6-a2fb-9f6c7d21094d}; !- Handle

OS:SimulationControl,
  {30e9303f-ed23-491c-b310-8ef7274e967f}, !- Handle
  ,                                       !- Do Zone Sizing Calculation
  ,                                       !- Do System Sizing Calculation
  ,                                       !- Do Plant Sizing Calculation
  No,                                     !- Run Simulation for Sizing Periods
  ,                                       !- Run Simulation for Weather File Run Periods
  ,                                       !- Loads Convergence Tolerance Value
  ,                                       !- Temperature Convergence Tolerance Value {deltaC}
  FullInteriorAndExterior,                !- Solar Distribution
  ,                                       !- Maximum Number of Warmup Days
  6;                                      !- Minimum Number of Warmup Days

OS:Sizing:Parameters,
  {c983733e-8a2d-428d-8380-a9c380f3d01c}, !- Handle
  1.25,                                   !- Heating Sizing Factor
  1.15;                                   !- Cooling Sizing Factor

OS:Timestep,
  {7a470c9d-4813-47b4-b276-325100b7b62f}, !- Handle
  6;                                      !- Number of Timesteps per Hour

OS:ShadowCalculation,
  {21696cf9-7a12-43bf-ac4c-50d1be8bf2fd}, !- Handle
  20,                                     !- Calculation Frequency
  15000;                                  !- Maximum Figures in Shadow Overlap Calculations

OS:HeatBalanceAlgorithm,
  {09f4a614-27ba-43a9-a0ac-4379e03c44e8}, !- Handle
  ConductionTransferFunction,             !- Algorithm
  200;                                    !- Surface Temperature Upper Limit {C}

OS:RunPeriod,
  {322b0b21-e55e-459f-b4f2-853d2d37fd9a}, !- Handle
  Run Period 1,                           !- Name
  1,                                      !- Begin Month
  1,                                      !- Begin Day of Month
  12,                                     !- End Month
  31,                                     !- End Day of Month
  ,                                       !- Use Weather File Holidays and Special Days
  ,                                       !- Use Weather File Daylight Saving Period
  ,                                       !- Apply Weekend Holiday Rule
  ,                                       !- Use Weather File Rain Indicators
  ,                                       !- Use Weather File Snow Indicators
  ;                                       !- Number of Times Runperiod to be Repeated

OS:LifeCycleCost:Parameters,
  {a8ce31c8-7533-4ad7-aa7a-5380b4197455}, !- Handle
  ,                                       !- Analysis Type
  ,                                       !- Discounting Convention
  ,                                       !- Inflation Approach
  ,                                       !- Real Discount Rate
  ,                                       !- Nominal Discount Rate
  ,                                       !- Inflation
  ,                                       !- Base Date Month
  ,                                       !- Base Date Year
  ,                                       !- Service Date Month
  ,                                       !- Service Date Year
  ;                                       !- Length of Study Period in Years

OS:SurfaceConvectionAlgorithm:Inside,
  {71932647-d521-418f-afdf-136294de2df6}, !- Handle
  TARP;                                   !- Algorithm

OS:SurfaceConvectionAlgorithm:Outside,
  {aa0297d7-b2e1-45ee-9279-5098659a4f49}, !- Handle
  DOE-2;                                  !- Algorithm

OS:WeatherFile,
  {95d0bbd0-b73c-4540-a160-d391a00e703d}, !- Handle
  Denver-Stapleton,                       !- City
  CO,                                     !- State Province Region
  USA,                                    !- Country
  TMY--23062,                             !- Data Source
  724690,                                 !- WMO Number
  39.76,                                  !- Latitude {deg}
  -104.86,                                !- Longitude {deg}
  -7,                                     !- Time Zone {hr}
  1611,                                   !- Elevation {m}
  file:///Users/dgoldwas/Documents/GitHub/OSEP_BESTTEST/measures/bestest_building_thermal_envelope_and_fabric_load_tests/resources/DRYCOLDTMY.epw, !- Url
  08DEB5B3;                               !- Checksum

OS:Building,
  {3e738f5d-1eed-461d-be2d-a48d9845d83b}, !- Handle
  BESTEST Case 910 - High-Mass South Shading, !- Name
  ,                                       !- Building Sector Type
  0,                                      !- North Axis {deg}
  ,                                       !- Nominal Floor to Floor Height {m}
  ,                                       !- Space Type Name
  {ab0b72f4-bf78-4d3a-b19d-cf3c2cf10795}, !- Default Construction Set Name
  ,                                       !- Default Schedule Set Name
  ,                                       !- Standards Number of Stories
  ,                                       !- Standards Number of Above Ground Stories
  ,                                       !- Standards Building Type
  ,                                       !- Standards Number of Living Units
  ,                                       !- Relocatable
  ;                                       !- Nominal Floor to Ceiling Height {m}

OS:ThermalZone,
  {07e4c29b-e9de-49b7-a570-65f7aec992cf}, !- Handle
  ZONE ONE,                               !- Name
  1,                                      !- Multiplier
  2.7,                                    !- Ceiling Height {m}
  129.6,                                  !- Volume {m3}
  ,                                       !- Floor Area {m2}
  ,                                       !- Zone Inside Convection Algorithm
  ,                                       !- Zone Outside Convection Algorithm
  ,                                       !- Zone Conditioning Equipment List Name
  {ab258b1f-96d3-488f-adb1-0fbcb4851cdf}, !- Zone Air Inlet Port List
  {820b3ca9-82d2-46c5-bef3-a2ce98c7d958}, !- Zone Air Exhaust Port List
  {85526d71-ed8d-43f4-88a6-a8ccaa2339f8}, !- Zone Air Node Name
  ,                                       !- Zone Return Air Node Name
  ,                                       !- Primary Daylighting Control Name
  ,                                       !- Fraction of Zone Controlled by Primary Daylighting Control
  ,                                       !- Secondary Daylighting Control Name
  ,                                       !- Fraction of Zone Controlled by Secondary Daylighting Control
  ,                                       !- Illuminance Map Name
  {66a3e018-9e60-4545-a684-cfa8a9029e51}, !- Group Rendering Name
  {1128ecfb-e2a7-4d88-a992-a3323ab7bde9}, !- Thermostat Name
  Yes,                                    !- Use Ideal Air Loads
  ;                                       !- Humidistat Name

OS:Rendering:Color,
  {66a3e018-9e60-4545-a684-cfa8a9029e51}, !- Handle
  Rendering Color 5,                      !- Name
  186,                                    !- Rendering Red Value
  85,                                     !- Rendering Green Value
  211;                                    !- Rendering Blue Value

OS:Node,
  {6e41a9ab-daa0-4f91-a9de-f8997d723a27}, !- Handle
  Node 1,                                 !- Name
  {85526d71-ed8d-43f4-88a6-a8ccaa2339f8}, !- Inlet Port
  ;                                       !- Outlet Port

OS:Connection,
  {85526d71-ed8d-43f4-88a6-a8ccaa2339f8}, !- Handle
  {85ecfa5b-9a4f-4005-bd3f-bd19a188ba20}, !- Name
  {07e4c29b-e9de-49b7-a570-65f7aec992cf}, !- Source Object
  11,                                     !- Outlet Port
  {6e41a9ab-daa0-4f91-a9de-f8997d723a27}, !- Target Object
  2;                                      !- Inlet Port

OS:PortList,
  {ab258b1f-96d3-488f-adb1-0fbcb4851cdf}, !- Handle
  Port List 1,                            !- Name
  {07e4c29b-e9de-49b7-a570-65f7aec992cf}; !- HVAC Component

OS:PortList,
  {820b3ca9-82d2-46c5-bef3-a2ce98c7d958}, !- Handle
  Port List 2,                            !- Name
  {07e4c29b-e9de-49b7-a570-65f7aec992cf}; !- HVAC Component

OS:Sizing:Zone,
  {11752ffe-b554-408d-bb0a-3761c458d510}, !- Handle
  {07e4c29b-e9de-49b7-a570-65f7aec992cf}, !- Zone or ZoneList Name
  SupplyAirTemperature,                   !- Zone Cooling Design Supply Air Temperature Input Method
  14,                                     !- Zone Cooling Design Supply Air Temperature {C}
  11.11,                                  !- Zone Cooling Design Supply Air Temperature Difference {deltaC}
  SupplyAirTemperature,                   !- Zone Heating Design Supply Air Temperature Input Method
  40,                                     !- Zone Heating Design Supply Air Temperature {C}
  11.11,                                  !- Zone Heating Design Supply Air Temperature Difference {deltaC}
  0.0085,                                 !- Zone Cooling Design Supply Air Humidity Ratio {kg-H2O/kg-air}
  0.008,                                  !- Zone Heating Design Supply Air Humidity Ratio {kg-H2O/kg-air}
  ,                                       !- Zone Heating Sizing Factor
  ,                                       !- Zone Cooling Sizing Factor
  DesignDay,                              !- Cooling Design Air Flow Method
  ,                                       !- Cooling Design Air Flow Rate {m3/s}
  ,                                       !- Cooling Minimum Air Flow per Zone Floor Area {m3/s-m2}
  ,                                       !- Cooling Minimum Air Flow {m3/s}
  ,                                       !- Cooling Minimum Air Flow Fraction
  DesignDay,                              !- Heating Design Air Flow Method
  ,                                       !- Heating Design Air Flow Rate {m3/s}
  ,                                       !- Heating Maximum Air Flow per Zone Floor Area {m3/s-m2}
  ,                                       !- Heating Maximum Air Flow {m3/s}
  ,                                       !- Heating Maximum Air Flow Fraction
  ,                                       !- Design Zone Air Distribution Effectiveness in Cooling Mode
  ,                                       !- Design Zone Air Distribution Effectiveness in Heating Mode
  No,                                     !- Account for Dedicated Outdoor Air System
  NeutralSupplyAir,                       !- Dedicated Outdoor Air System Control Strategy
  autosize,                               !- Dedicated Outdoor Air Low Setpoint Temperature for Design {C}
  autosize;                               !- Dedicated Outdoor Air High Setpoint Temperature for Design {C}

OS:ZoneHVAC:EquipmentList,
  {f355f4ca-28ce-4725-9ced-2e049d264354}, !- Handle
  Zone HVAC Equipment List 1,             !- Name
  {07e4c29b-e9de-49b7-a570-65f7aec992cf}; !- Thermal Zone

OS:Schedule:Year,
  {2270f106-4b56-4fe8-be28-7873f0e3b88e}, !- Handle
  Heating Setpoints,                      !- Name
  {2a975221-88bd-47d3-be8f-4da126f8cd19}, !- Schedule Type Limits Name
  12,                                     !- Month 1
  31,                                     !- Day 1
  {03307ccc-c79f-443a-b400-58b297637816}; !- Week Schedule Until Date 1

OS:Schedule:Year,
  {d5c1a24b-bacd-4d9b-b5a5-93b215169d9c}, !- Handle
  Cooling Setpoints,                      !- Name
  {2a975221-88bd-47d3-be8f-4da126f8cd19}, !- Schedule Type Limits Name
  12,                                     !- Month 1
  31,                                     !- Day 1
  {44dea7ec-2c65-42fd-b200-84b3353cf538}; !- Week Schedule Until Date 1

OS:ScheduleTypeLimits,
  {2a975221-88bd-47d3-be8f-4da126f8cd19}, !- Handle
  Temperature,                            !- Name
  -60,                                    !- Lower Limit Value
  200,                                    !- Upper Limit Value
  Continuous,                             !- Numeric Type
  Temperature;                            !- Unit Type

OS:Schedule:Week,
  {03307ccc-c79f-443a-b400-58b297637816}, !- Handle
  Zone Heating Setpoint All Weeks,        !- Name
  ,                                       !- Schedule Rendering Name
  {952486c5-ef69-4923-9ee0-5809a24ad04b}, !- Sunday Schedule:Day Name
  {952486c5-ef69-4923-9ee0-5809a24ad04b}, !- Monday Schedule:Day Name
  {952486c5-ef69-4923-9ee0-5809a24ad04b}, !- Tuesday Schedule:Day Name
  {952486c5-ef69-4923-9ee0-5809a24ad04b}, !- Wednesday Schedule:Day Name
  {952486c5-ef69-4923-9ee0-5809a24ad04b}, !- Thursday Schedule:Day Name
  {952486c5-ef69-4923-9ee0-5809a24ad04b}, !- Friday Schedule:Day Name
  {952486c5-ef69-4923-9ee0-5809a24ad04b}, !- Saturday Schedule:Day Name
  {952486c5-ef69-4923-9ee0-5809a24ad04b}, !- Holiday Schedule:Day Name
  {952486c5-ef69-4923-9ee0-5809a24ad04b}, !- SummerDesignDay Schedule:Day Name
  {952486c5-ef69-4923-9ee0-5809a24ad04b}, !- WinterDesignDay Schedule:Day Name
  {952486c5-ef69-4923-9ee0-5809a24ad04b}, !- CustomDay1 Schedule:Day Name
  {952486c5-ef69-4923-9ee0-5809a24ad04b}; !- CustomDay2 Schedule:Day Name

OS:Schedule:Week,
  {44dea7ec-2c65-42fd-b200-84b3353cf538}, !- Handle
  Zone Cooling Setpoint All Weeks,        !- Name
  ,                                       !- Schedule Rendering Name
  {fdfd9e87-2dac-4dca-acbe-2902355f9a77}, !- Sunday Schedule:Day Name
  {fdfd9e87-2dac-4dca-acbe-2902355f9a77}, !- Monday Schedule:Day Name
  {fdfd9e87-2dac-4dca-acbe-2902355f9a77}, !- Tuesday Schedule:Day Name
  {fdfd9e87-2dac-4dca-acbe-2902355f9a77}, !- Wednesday Schedule:Day Name
  {fdfd9e87-2dac-4dca-acbe-2902355f9a77}, !- Thursday Schedule:Day Name
  {fdfd9e87-2dac-4dca-acbe-2902355f9a77}, !- Friday Schedule:Day Name
  {fdfd9e87-2dac-4dca-acbe-2902355f9a77}, !- Saturday Schedule:Day Name
  {fdfd9e87-2dac-4dca-acbe-2902355f9a77}, !- Holiday Schedule:Day Name
  {fdfd9e87-2dac-4dca-acbe-2902355f9a77}, !- SummerDesignDay Schedule:Day Name
  {fdfd9e87-2dac-4dca-acbe-2902355f9a77}, !- WinterDesignDay Schedule:Day Name
  {fdfd9e87-2dac-4dca-acbe-2902355f9a77}, !- CustomDay1 Schedule:Day Name
  {fdfd9e87-2dac-4dca-acbe-2902355f9a77}; !- CustomDay2 Schedule:Day Name

OS:Schedule:Day,
  {952486c5-ef69-4923-9ee0-5809a24ad04b}, !- Handle
  Zone Heating Setpoint All Days,         !- Name
  {2a975221-88bd-47d3-be8f-4da126f8cd19}, !- Schedule Type Limits Name
  ,                                       !- Interpolate to Timestep
  1,                                      !- Hour 1
  0,                                      !- Minute 1
  20,                                     !- Value Until Time 1
  2,                                      !- Hour 2
  0,                                      !- Minute 2
  20,                                     !- Value Until Time 2
  3,                                      !- Hour 3
  0,                                      !- Minute 3
  20,                                     !- Value Until Time 3
  4,                                      !- Hour 4
  0,                                      !- Minute 4
  20,                                     !- Value Until Time 4
  5,                                      !- Hour 5
  0,                                      !- Minute 5
  20,                                     !- Value Until Time 5
  6,                                      !- Hour 6
  0,                                      !- Minute 6
  20,                                     !- Value Until Time 6
  7,                                      !- Hour 7
  0,                                      !- Minute 7
  20,                                     !- Value Until Time 7
  8,                                      !- Hour 8
  0,                                      !- Minute 8
  20,                                     !- Value Until Time 8
  9,                                      !- Hour 9
  0,                                      !- Minute 9
  20,                                     !- Value Until Time 9
  10,                                     !- Hour 10
  0,                                      !- Minute 10
  20,                                     !- Value Until Time 10
  11,                                     !- Hour 11
  0,                                      !- Minute 11
  20,                                     !- Value Until Time 11
  12,                                     !- Hour 12
  0,                                      !- Minute 12
  20,                                     !- Value Until Time 12
  13,                                     !- Hour 13
  0,                                      !- Minute 13
  20,                                     !- Value Until Time 13
  14,                                     !- Hour 14
  0,                                      !- Minute 14
  20,                                     !- Value Until Time 14
  15,                                     !- Hour 15
  0,                                      !- Minute 15
  20,                                     !- Value Until Time 15
  16,                                     !- Hour 16
  0,                                      !- Minute 16
  20,                                     !- Value Until Time 16
  17,                                     !- Hour 17
  0,                                      !- Minute 17
  20,                                     !- Value Until Time 17
  18,                                     !- Hour 18
  0,                                      !- Minute 18
  20,                                     !- Value Until Time 18
  19,                                     !- Hour 19
  0,                                      !- Minute 19
  20,                                     !- Value Until Time 19
  20,                                     !- Hour 20
  0,                                      !- Minute 20
  20,                                     !- Value Until Time 20
  21,                                     !- Hour 21
  0,                                      !- Minute 21
  20,                                     !- Value Until Time 21
  22,                                     !- Hour 22
  0,                                      !- Minute 22
  20,                                     !- Value Until Time 22
  23,                                     !- Hour 23
  0,                                      !- Minute 23
  20,                                     !- Value Until Time 23
  24,                                     !- Hour 24
  0,                                      !- Minute 24
  20;                                     !- Value Until Time 24

OS:Schedule:Day,
  {fdfd9e87-2dac-4dca-acbe-2902355f9a77}, !- Handle
  Zone Cooling Setpoint All Days,         !- Name
  {2a975221-88bd-47d3-be8f-4da126f8cd19}, !- Schedule Type Limits Name
  ,                                       !- Interpolate to Timestep
  1,                                      !- Hour 1
  0,                                      !- Minute 1
  27,                                     !- Value Until Time 1
  2,                                      !- Hour 2
  0,                                      !- Minute 2
  27,                                     !- Value Until Time 2
  3,                                      !- Hour 3
  0,                                      !- Minute 3
  27,                                     !- Value Until Time 3
  4,                                      !- Hour 4
  0,                                      !- Minute 4
  27,                                     !- Value Until Time 4
  5,                                      !- Hour 5
  0,                                      !- Minute 5
  27,                                     !- Value Until Time 5
  6,                                      !- Hour 6
  0,                                      !- Minute 6
  27,                                     !- Value Until Time 6
  7,                                      !- Hour 7
  0,                                      !- Minute 7
  27,                                     !- Value Until Time 7
  8,                                      !- Hour 8
  0,                                      !- Minute 8
  27,                                     !- Value Until Time 8
  9,                                      !- Hour 9
  0,                                      !- Minute 9
  27,                                     !- Value Until Time 9
  10,                                     !- Hour 10
  0,                                      !- Minute 10
  27,                                     !- Value Until Time 10
  11,                                     !- Hour 11
  0,                                      !- Minute 11
  27,                                     !- Value Until Time 11
  12,                                     !- Hour 12
  0,                                      !- Minute 12
  27,                                     !- Value Until Time 12
  13,                                     !- Hour 13
  0,                                      !- Minute 13
  27,                                     !- Value Until Time 13
  14,                                     !- Hour 14
  0,                                      !- Minute 14
  27,                                     !- Value Until Time 14
  15,                                     !- Hour 15
  0,                                      !- Minute 15
  27,                                     !- Value Until Time 15
  16,                                     !- Hour 16
  0,                                      !- Minute 16
  27,                                     !- Value Until Time 16
  17,                                     !- Hour 17
  0,                                      !- Minute 17
  27,                                     !- Value Until Time 17
  18,                                     !- Hour 18
  0,                                      !- Minute 18
  27,                                     !- Value Until Time 18
  19,                                     !- Hour 19
  0,                                      !- Minute 19
  27,                                     !- Value Until Time 19
  20,                                     !- Hour 20
  0,                                      !- Minute 20
  27,                                     !- Value Until Time 20
  21,                                     !- Hour 21
  0,                                      !- Minute 21
  27,                                     !- Value Until Time 21
  22,                                     !- Hour 22
  0,                                      !- Minute 22
  27,                                     !- Value Until Time 22
  23,                                     !- Hour 23
  0,                                      !- Minute 23
  27,                                     !- Value Until Time 23
  24,                                     !- Hour 24
  0,                                      !- Minute 24
  27;                                     !- Value Until Time 24

OS:Space,
  {25462ee1-6227-435f-8f21-65b0ffbda503}, !- Handle
  ZONE ONE Space,                         !- Name
  ,                                       !- Space Type Name
  ,                                       !- Default Construction Set Name
  ,                                       !- Default Schedule Set Name
  0,                                      !- Direction of Relative North {deg}
  0,                                      !- X Origin {m}
  0,                                      !- Y Origin {m}
  0,                                      !- Z Origin {m}
  ,                                       !- Building Story Name
  {07e4c29b-e9de-49b7-a570-65f7aec992cf}, !- Thermal Zone Name
  ,                                       !- Part of Total Floor Area
  ;                                       !- Design Specification Outdoor Air Object Name

OS:ShadingSurfaceGroup,
  {f686af3d-1526-4831-8165-be615c551c46}, !- Handle
  {7827d0c5-70ad-460f-862b-c8f36280fb77}, !- Name
  Space,                                  !- Shading Surface Type
  {25462ee1-6227-435f-8f21-65b0ffbda503}, !- Space Name
  ,                                       !- Direction of Relative North {deg}
  ,                                       !- X Origin {m}
  ,                                       !- Y Origin {m}
  ,                                       !- Z Origin {m}
  ;                                       !- Shaded Object Name

OS:ShadingSurface,
  {062624cc-da42-4007-8aa5-c22dac1ab98b}, !- Handle
  SOUTH WALL OVERHANG,                    !- Name
  ,                                       !- Construction Name
  {f686af3d-1526-4831-8165-be615c551c46}, !- Shading Surface Group Name
  {80b2fb01-88c7-412c-a1c9-e8a01cd46706}, !- Transmittance Schedule Name
  ,                                       !- Number of Vertices
  8, 0, 2.7,                              !- X,Y,Z Vertex 1 {m}
  8, -1, 2.7,                             !- X,Y,Z Vertex 2 {m}
  0, -1, 2.7,                             !- X,Y,Z Vertex 3 {m}
  0, 0, 2.7;                              !- X,Y,Z Vertex 4 {m}

OS:Schedule:Year,
  {80b2fb01-88c7-412c-a1c9-e8a01cd46706}, !- Handle
  Sch 2,                                  !- Name
  {3f9a3019-861e-4b84-978b-57dff7e8734a}, !- Schedule Type Limits Name
  12,                                     !- Month 1
  31,                                     !- Day 1
  {b0b4206f-b2f7-4dfb-9138-39541b7a2e29}; !- Week Schedule Until Date 1

OS:ScheduleTypeLimits,
  {3f9a3019-861e-4b84-978b-57dff7e8734a}, !- Handle
  Fraction,                               !- Name
  0,                                      !- Lower Limit Value
  1,                                      !- Upper Limit Value
  Continuous;                             !- Numeric Type

OS:Schedule:Week,
  {b0b4206f-b2f7-4dfb-9138-39541b7a2e29}, !- Handle
  Week Sch 2,                             !- Name
  ,                                       !- Schedule Rendering Name
  {4be4fabd-9630-4239-b98e-86c74ceaa90b}, !- Sunday Schedule:Day Name
  {4be4fabd-9630-4239-b98e-86c74ceaa90b}, !- Monday Schedule:Day Name
  {4be4fabd-9630-4239-b98e-86c74ceaa90b}, !- Tuesday Schedule:Day Name
  {4be4fabd-9630-4239-b98e-86c74ceaa90b}, !- Wednesday Schedule:Day Name
  {4be4fabd-9630-4239-b98e-86c74ceaa90b}, !- Thursday Schedule:Day Name
  {4be4fabd-9630-4239-b98e-86c74ceaa90b}, !- Friday Schedule:Day Name
  {4be4fabd-9630-4239-b98e-86c74ceaa90b}, !- Saturday Schedule:Day Name
  {4be4fabd-9630-4239-b98e-86c74ceaa90b}, !- Holiday Schedule:Day Name
  {4be4fabd-9630-4239-b98e-86c74ceaa90b}, !- SummerDesignDay Schedule:Day Name
  {4be4fabd-9630-4239-b98e-86c74ceaa90b}, !- WinterDesignDay Schedule:Day Name
  {4be4fabd-9630-4239-b98e-86c74ceaa90b}, !- CustomDay1 Schedule:Day Name
  {4be4fabd-9630-4239-b98e-86c74ceaa90b}; !- CustomDay2 Schedule:Day Name

OS:Schedule:Day,
  {4be4fabd-9630-4239-b98e-86c74ceaa90b}, !- Handle
  Day Sch 2,                              !- Name
  {3f9a3019-861e-4b84-978b-57dff7e8734a}, !- Schedule Type Limits Name
  ,                                       !- Interpolate to Timestep
  1,                                      !- Hour 1
  0,                                      !- Minute 1
  0,                                      !- Value Until Time 1
  2,                                      !- Hour 2
  0,                                      !- Minute 2
  0,                                      !- Value Until Time 2
  3,                                      !- Hour 3
  0,                                      !- Minute 3
  0,                                      !- Value Until Time 3
  4,                                      !- Hour 4
  0,                                      !- Minute 4
  0,                                      !- Value Until Time 4
  5,                                      !- Hour 5
  0,                                      !- Minute 5
  0,                                      !- Value Until Time 5
  6,                                      !- Hour 6
  0,                                      !- Minute 6
  0,                                      !- Value Until Time 6
  7,                                      !- Hour 7
  0,                                      !- Minute 7
  0,                                      !- Value Until Time 7
  8,                                      !- Hour 8
  0,                                      !- Minute 8
  0,                                      !- Value Until Time 8
  9,                                      !- Hour 9
  0,                                      !- Minute 9