
OS:Version,
  {8c11310a-8431-4ce3-b4b5-77fecdafc519}, !- Handle
  2.1.1;                                  !- Version Identifier

OS:Site,
  {bc874655-a927-4872-a278-1347186bb1d9}, !- Handle
  Ottawa Int'l_ON_CAN,                    !- Name
  45.32,                                  !- Latitude {deg}
  -75.67,                                 !- Longitude {deg}
  -5,                                     !- Time Zone {hr}
  114,                                    !- Elevation {m}
  Country;                                !- Terrain

OS:YearDescription,
  {9116ce1c-534f-4b3a-9d15-2bb1a805c7e1}, !- Handle
  ,                                       !- Calendar Year
  ;                                       !- Day of Week for Start Day

OS:ClimateZones,
  {dd268d6b-2da7-4abc-b8ad-35d0988c56cd}, !- Handle
  ,                                       !- Active Institution
  ,                                       !- Active Year
  ASHRAE,                                 !- Climate Zone Institution Name 1
  ANSI/ASHRAE Standard 169,               !- Climate Zone Document Name 1
  2006,                                   !- Climate Zone Document Year 1
  ,                                       !- Climate Zone Value 1
  CEC,                                    !- Climate Zone Institution Name 2
  California Climate Zone Descriptions,   !- Climate Zone Document Name 2
  1995,                                   !- Climate Zone Document Year 2
  ;                                       !- Climate Zone Value 2

OS:Facility,
  {01cd2b0a-8ee0-4ab6-a2fb-9f6c7d21094d}; !- Handle

OS:SimulationControl,
  {30e9303f-ed23-491c-b310-8ef7274e967f}, !- Handle
  ,                                       !- Do Zone Sizing Calculation
  ,                                       !- Do System Sizing Calculation
  ,                                       !- Do Plant Sizing Calculation
  No,                                     !- Run Simulation for Sizing Periods
  ,                                       !- Run Simulation for Weather File Run Periods
  ,                                       !- Loads Convergence Tolerance Value
  ,                                       !- Temperature Convergence Tolerance Value {deltaC}
  FullInteriorAndExterior,                !- Solar Distribution
  ,                                       !- Maximum Number of Warmup Days
  6;                                      !- Minimum Number of Warmup Days

OS:Sizing:Parameters,
  {c983733e-8a2d-428d-8380-a9c380f3d01c}, !- Handle
  1.25,                                   !- Heating Sizing Factor
  1.15;                                   !- Cooling Sizing Factor

OS:Timestep,
  {7a470c9d-4813-47b4-b276-325100b7b62f}, !- Handle
  4;                                      !- Number of Timesteps per Hour

OS:ShadowCalculation,
  {21696cf9-7a12-43bf-ac4c-50d1be8bf2fd}, !- Handle
  20,                                     !- Calculation Frequency
  15000;                                  !- Maximum Figures in Shadow Overlap Calculations

OS:HeatBalanceAlgorithm,
  {09f4a614-27ba-43a9-a0ac-4379e03c44e8}, !- Handle
  ConductionTransferFunction,             !- Algorithm
  200,                                    !- Surface Temperature Upper Limit {C}
  1e-07;                                  !- Minimum Surface Convection Heat Transfer Coefficient Value {W/m2-K}

OS:RunPeriod,
  {322b0b21-e55e-459f-b4f2-853d2d37fd9a}, !- Handle
  Run Period 1,                           !- Name
  1,                                      !- Begin Month
  1,                                      !- Begin Day of Month
  3,                                      !- End Month
  31,                                     !- End Day of Month
  ,                                       !- Use Weather File Holidays and Special Days
  ,                                       !- Use Weather File Daylight Saving Period
  ,                                       !- Apply Weekend Holiday Rule
  ,                                       !- Use Weather File Rain Indicators
  ,                                       !- Use Weather File Snow Indicators
  ;                                       !- Number of Times Runperiod to be Repeated

OS:LifeCycleCost:Parameters,
  {a8ce31c8-7533-4ad7-aa7a-5380b4197455}, !- Handle
  ,                                       !- Analysis Type
  ,                                       !- Discounting Convention
  ,                                       !- Inflation Approach
  ,                                       !- Real Discount Rate
  ,                                       !- Nominal Discount Rate
  ,                                       !- Inflation
  ,                                       !- Base Date Month
  ,                                       !- Base Date Year
  ,                                       !- Service Date Month
  ,                                       !- Service Date Year
  ;                                       !- Length of Study Period in Years

OS:SurfaceConvectionAlgorithm:Inside,
  {f18605cb-1ca8-4abc-b520-43f925728beb}, !- Handle
  Simple;                                 !- Algorithm

OS:SurfaceConvectionAlgorithm:Outside,
  {cc5d2f71-0f60-46ac-b120-e675d4bb0973}, !- Handle
  DOE-2;                                  !- Algorithm

OS:WeatherFile,
  {9ef67088-ff14-4bfd-83c1-1cafecdc6508}, !- Handle
  Ottawa Int'l,                           !- City
  ON,                                     !- State Province Region
  CAN,                                    !- Country
  WYEC2-B-04772,                          !- Data Source
  716280,                                 !- WMO Number
  45.32,                                  !- Latitude {deg}
  -75.67,                                 !- Longitude {deg}
  -5,                                     !- Time Zone {hr}
  114,                                    !- Elevation {m}
  file:///Users/dgoldwas/Documents/GitHub/NREL/OSEP_BESTTEST/measures/bestest_space_heating_equipment_performance/resources/HE100WWY2.epw, !- Url
  FB484A5B;                               !- Checksum

OS:SizingPeriod:DesignDay,
  {651aa7fe-18e6-4cdd-b0a3-e37f5ff08a47}, !- Handle
  Sizing Period Design Day 1,             !- Name
  23,                                     !- Maximum Dry-Bulb Temperature {C}
  0,                                      !- Daily Dry-Bulb Temperature Range {deltaC}
  23,                                     !- Humidity Indicating Conditions at Maximum Dry-Bulb
  31000,                                  !- Barometric Pressure {Pa}
  0,                                      !- Wind Speed {m/s}
  0,                                      !- Wind Direction {deg}
  0,                                      !- Sky Clearness
  ,                                       !- Rain Indicator
  0,                                      !- Snow Indicator
  1,                                      !- Day of Month
  1,                                      !- Month
  SummerDesignDay,                        !- Day Type
  0,                                      !- Daylight Saving Time Indicator
  WetBulb,                                !- Humidity Indicating Type
  ,                                       !- Humidity Indicating Day Schedule Name
  DefaultMultipliers,                     !- Dry-Bulb Temperature Range Modifier Type
  ,                                       !- Dry-Bulb Temperature Range Modifier Schedule Name
  ASHRAEClearSky;                         !- Solar Model Indicator

OS:SizingPeriod:DesignDay,
  {dd75303f-673d-4b1a-a4df-67ee64ab661c}, !- Handle
  Sizing Period Design Day 2,             !- Name
  23,                                     !- Maximum Dry-Bulb Temperature {C}
  0,                                      !- Daily Dry-Bulb Temperature Range {deltaC}
  23,                                     !- Humidity Indicating Conditions at Maximum Dry-Bulb
  31000,                                  !- Barometric Pressure {Pa}
  0,                                      !- Wind Speed {m/s}
  0,                                      !- Wind Direction {deg}
  0,                                      !- Sky Clearness
  ,                                       !- Rain Indicator
  0,                                      !- Snow Indicator
  1,                                      !- Day of Month
  1,                                      !- Month
  WinterDesignDay,                        !- Day Type
  0,                                      !- Daylight Saving Time Indicator
  WetBulb,                                !- Humidity Indicating Type
  ,                                       !- Humidity Indicating Day Schedule Name
  DefaultMultipliers,                     !- Dry-Bulb Temperature Range Modifier Type
  ,                                       !- Dry-Bulb Temperature Range Modifier Schedule Name
  ASHRAEClearSky;                         !- Solar Model Indicator

OS:Building,
  {d33baa66-99b7-4657-8aa9-cffb08d6994b}, !- Handle
  BESTEST Case HE100 - Base-case Building and Mechanical Systems, !- Name
  ,                                       !- Building Sector Type
  0,                                      !- North Axis {deg}
  ,                                       !- Nominal Floor to Floor Height {m}
  ,                                       !- Space Type Name
  ,                                       !- Default Construction Set Name
  ;                                       !- Default Schedule Set Name

OS:ThermalZone,
  {493f4c0e-3c58-48c4-8f48-b75375de9750}, !- Handle
  ZONE ONE,                               !- Name
  1,                                      !- Multiplier
  2.7,                                    !- Ceiling Height {m}
  129.6,                                  !- Volume {m3}
  ,                                       !- Floor Area {m2}
  ,                                       !- Zone Inside Convection Algorithm
  ,                                       !- Zone Outside Convection Algorithm
  ,                                       !- Zone Conditioning Equipment List Name
  {7e19926d-dc55-42f4-835d-0a8345c98b5c}, !- Zone Air Inlet Port List
  {1dc0cfde-7dc9-41d9-b14c-8299be8d8123}, !- Zone Air Exhaust Port List
  {60797013-12cf-40ba-83b4-13c011ac20a2}, !- Zone Air Node Name
  {59fc5d40-fb53-4c3e-944f-7ca16175594d}, !- Zone Return Air Node Name
  ,                                       !- Primary Daylighting Control Name
  ,                                       !- Fraction of Zone Controlled by Primary Daylighting Control
  ,                                       !- Secondary Daylighting Control Name
  ,                                       !- Fraction of Zone Controlled by Secondary Daylighting Control
  ,                                       !- Illuminance Map Name
  ,                                       !- Group Rendering Name
  {5de0e6af-8bd5-48c2-ab0d-9fb60e724406}, !- Thermostat Name
  No,                                     !- Use Ideal Air Loads
  ;                                       !- Humidistat Name

OS:Node,
  {3f85be06-cea3-4416-9d93-2482f85406e1}, !- Handle
  Node 1,                                 !- Name
  {60797013-12cf-40ba-83b4-13c011ac20a2}, !- Inlet Port
  ;                                       !- Outlet Port

OS:Connection,
  {60797013-12cf-40ba-83b4-13c011ac20a2}, !- Handle
  {63f6664c-7fe1-4a0e-a89c-5faffa18b724}, !- Name
  {493f4c0e-3c58-48c4-8f48-b75375de9750}, !- Source Object
  11,                                     !- Outlet Port
  {3f85be06-cea3-4416-9d93-2482f85406e1}, !- Target Object
  2;                                      !- Inlet Port

OS:PortList,
  {7e19926d-dc55-42f4-835d-0a8345c98b5c}, !- Handle
  Port List 1,                            !- Name
  {493f4c0e-3c58-48c4-8f48-b75375de9750}, !- HVAC Component
  {6c948280-9725-48b6-8f85-221adc20702e}; !- Port 1

OS:PortList,
  {1dc0cfde-7dc9-41d9-b14c-8299be8d8123}, !- Handle
  Port List 2,                            !- Name
  {493f4c0e-3c58-48c4-8f48-b75375de9750}; !- HVAC Component

OS:Sizing:Zone,
  {4472ae33-b112-49cd-80bf-d14029244254}, !- Handle
  {493f4c0e-3c58-48c4-8f48-b75375de9750}, !- Zone or ZoneList Name
  SupplyAirTemperature,                   !- Zone Cooling Design Supply Air Temperature Input Method
  14,                                     !- Zone Cooling Design Supply Air Temperature {C}
  11.11,                                  !- Zone Cooling Design Supply Air Temperature Difference {deltaC}
  SupplyAirTemperature,                   !- Zone Heating Design Supply Air Temperature Input Method
  40,                                     !- Zone Heating Design Supply Air Temperature {C}
  11.11,                                  !- Zone Heating Design Supply Air Temperature Difference {deltaC}
  0.0085,                                 !- Zone Cooling Design Supply Air Humidity Ratio {kg-H2O/kg-air}
  0.008,                                  !- Zone Heating Design Supply Air Humidity Ratio {kg-H2O/kg-air}
  ,                                       !- Zone Heating Sizing Factor
  ,                                       !- Zone Cooling Sizing Factor
  DesignDay,                              !- Cooling Design Air Flow Method
  ,                                       !- Cooling Design Air Flow Rate {m3/s}
  ,                                       !- Cooling Minimum Air Flow per Zone Floor Area {m3/s-m2}
  ,                                       !- Cooling Minimum Air Flow {m3/s}
  ,                                       !- Cooling Minimum Air Flow Fraction
  DesignDay,                              !- Heating Design Air Flow Method
  ,                                       !- Heating Design Air Flow Rate {m3/s}
  ,                                       !- Heating Maximum Air Flow per Zone Floor Area {m3/s-m2}
  ,                                       !- Heating Maximum Air Flow {m3/s}
  ,                                       !- Heating Maximum Air Flow Fraction
  ,                                       !- Design Zone Air Distribution Effectiveness in Cooling Mode
  ,                                       !- Design Zone Air Distribution Effectiveness in Heating Mode
  No,                                     !- Account for Dedicated Outdoor Air System
  NeutralSupplyAir,                       !- Dedicated Outdoor Air System Control Strategy
  autosize,                               !- Dedicated Outdoor Air Low Setpoint Temperature for Design {C}
  autosize;                               !- Dedicated Outdoor Air High Setpoint Temperature for Design {C}

OS:ZoneHVAC:EquipmentList,
  {8f06fa4f-fda5-408e-b3b7-cece640ac4b3}, !- Handle
  Zone HVAC Equipment List 1,             !- Name
  {493f4c0e-3c58-48c4-8f48-b75375de9750}, !- Thermal Zone
  {b53de02e-556b-4059-ba81-6203546ae78b}, !- Zone Equipment 1
  1,                                      !- Zone Equipment Cooling Sequence 1
  1;                                      !- Zone Equipment Heating or No-Load Sequence 1

OS:Space,
  {a2199812-b449-4787-bdb6-8037dfcb6bca}, !- Handle
  ZONE ONE Space,                         !- Name
  ,                                       !- Space Type Name
  ,                                       !- Default Construction Set Name
  ,                                       !- Default Schedule Set Name
  0,                                      !- Direction of Relative North {deg}
  0,                                      !- X Origin {m}
  0,                                      !- Y Origin {m}
  0,                                      !- Z Origin {m}
  ,                                       !- Building Story Name
  {493f4c0e-3c58-48c4-8f48-b75375de9750}; !- Thermal Zone Name

OS:Surface,
  {42b3b097-29b6-4a43-be1d-5d64fd55b65c}, !- Handle
  ZONE SURFACE WEST,                      !- Name
  Wall,                                   !- Surface Type
  {3c5188f9-8476-47d8-b117-3c7504d0dfd7}, !- Construction Name
  {a2199812-b449-4787-bdb6-8037dfcb6bca}, !- Space Name
  Outdoors,                               !- Outside Boundary Condition
  ,                                       !- Outside Boundary Condition Object
  SunExposed,                             !- Sun Exposure
  WindExposed,                            !- Wind Exposure
  0,                                      !- View Factor to Ground
  ,                                       !- Number of Vertices
  0, 6, 2.7,                              !- X,Y,Z Vertex 1 {m}
  0, 6, 0,                                !- X,Y,Z Vertex 2 {m}
  0, 0, 0,                                !- X,Y,Z Vertex 3 {m}
  0, 0, 2.7;                              !- X,Y,Z Vertex 4 {m}

OS:Construction,
  {3c5188f9-8476-47d8-b117-3c7504d0dfd7}, !- Handle
  WALL-FLOOR,                             !- Name
  ,                                       !- Surface Rendering Name
  {58296e6d-870c-41ac-a007-68d4ffd2cff1}; !- Layer 1

OS:StandardsInformation:Construction,
  {464e7955-281e-4182-a9db-e5760f54d59e}, !- Handle
  {3c5188f9-8476-47d8-b117-3c7504d0dfd7}; !- Construction Name

OS:Material:NoMass,
  {58296e6d-870c-41ac-a007-68d4ffd2cff1}, !- Handle
  INSULATION-Wall-Floor,                  !- Name
  VerySmooth,                             !- Roughness
  100,                                    !- Thermal Resistance {m2-K/W}
  1e-07,                                  !- Thermal Absorptance
  0,                                      !- Solar Absorptance
  0;                                      !- Visible Absorptance

OS:StandardsInformation:Material,
  {1b52000b-e834-40da-a881-d0a2f3e62edf}, !- Handle
  {58296e6d-870c-41ac-a007-68d4ffd2cff1}; !- Material Name

OS:Surface,
  {bd003f31-f5ed-45c8-a124-ebd924d46b34}, !- Handle
  ZONE SURFACE ROOF,                      !- Name
  RoofCeiling,                            !- Surface Type
  {0df90ece-8515-47da-80ce-7a3c481db8b2}, !- Construction Name
  {a2199812-b449-4787-bdb6-8037dfcb6bca}, !- Space Name
  Outdoors,                               !- Outside Boundary Condition
  ,                                       !- Outside Boundary Condition Object
  SunExposed,                             !- Sun Exposure
  WindExposed,                            !- Wind Exposure
  0,                                      !- View Factor to Ground
  ,                                       !- Number of Vertices
  8, 0, 2.7,                              !- X,Y,Z Vertex 1 {m}
  8, 6, 2.7,                              !- X,Y,Z Vertex 2 {m}
  0, 6, 2.7,                              !- X,Y,Z Vertex 3 {m}
  0, 0, 2.7;                              !- X,Y,Z Vertex 4 {m}

OS:Construction,
  {0df90ece-8515-47da-80ce-7a3c481db8b2}, !- Handle
  ROOF,                                   !- Name
  ,                                       !- Surface Rendering Name
  {a6433d37-1b0b-4005-bc1d-bc076d75453f}; !- Layer 1

OS:StandardsInformation:Construction,
  {824b1932-8e19-4056-b549-c9d9e21cbc74}, !- Handle
  {0df90ece-8515-47da-80ce-7a3c481db8b2}; !- Construction Name

OS:Material:NoMass,
  {a6433d37-1b0b-4005-bc1d-bc076d75453f}, !- Handle
  INSULATION-Roof,                        !- Name
  VerySmooth,                             !- Roughness
  0.14,                                   !- Thermal Resistance {m2-K/W}
  1e-07,                                  !- Thermal Absorptance
  0,                                      !- Solar Absorptance
  0;                                      !- Visible Absorptance

OS:StandardsInformation:Material,
  {ba39ca1a-33c5-45c5-a411-fbbe0271e599}, !- Handle
  {a6433d37-1b0b-4005-bc1d-bc076d75453f}; !- Material Name

OS:Surface,
  {beb43fd3-7226-4540-b8c9-86ffe68a0d2d}, !- Handle
  ZONE SURFACE FLOOR,                     !- Name
  Floor,                                  !- Surface Type
  {3c5188f9-8476-47d8-b117-3c7504d0dfd7}, !- Construction Name
  {a2199812-b449-4787-bdb6-8037dfcb6bca}, !- Space Name
  Outdoors,                               !- Outside Boundary Condition
  ,                                       !- Outside Boundary Condition Object
  SunExposed,                             !- Sun Exposure
  WindExposed,                            !- Wind Exposure
  0,                                      !- View Factor to Ground
  ,                                       !- Number of Vertices
  8, 6, 0,                                !- X,Y,Z Vertex 1 {m}
  8, 0, 0,                                !- X,Y,Z Vertex 2 {m}
  0, 0, 0,                                !- X,Y,Z Vertex 3 {m}
  0, 6, 0;                                !- X,Y,Z Vertex 4 {m}

OS:Surface,
  {a75c851d-c38e-41ea-8f19-831390f983f3}, !- Handle
  ZONE SURFACE EAST,                      !- Name
  Wall,                                   !- Surface Type
  {3c5188f9-8476-47d8-b117-3c7504d0dfd7}, !- Construction Name
  {a2199812-b449-4787-bdb6-8037dfcb6bca}, !- Space Name
  Outdoors,                               !- Outside Boundary Condition
  ,                                       !- Outside Boundary Condition Object
  SunExposed,                             !- Sun Exposure
  WindExposed,                            !- Wind Exposure
  0,                                      !- View Factor to Ground
  ,                                       !- Number of Vertices
  8, 0, 2.7,                              !- X,Y,Z Vertex 1 {m}
  8, 0, 0,                                !- X,Y,Z Vertex 2 {m}
  8, 6, 0,                                !- X,Y,Z Vertex 3 {m}
  8, 6, 2.7;                              !- X,Y,Z Vertex 4 {m}

OS:Surface,
  {dfa6dfc9-37cb-42bd-adf1-aacdcdc61cc5}, !- Handle
  ZONE SURFACE SOUTH,                     !- Name
  Wall,                                   !- Surface Type
  {3c5188f9-8476-47d8-b117-3c7504d0dfd7}, !- Construction Name
  {a2199812-b449-4787-bdb6-8037dfcb6bca}, !- Space Name
  Outdoors,                               !- Outside Boundary Condition
  ,                                       !- Outside Boundary Condition Object
  SunExposed,                             !- Sun Exposure
  WindExposed,                            !- Wind Exposure
  0,                                      !- View Factor to Ground
  ,                                       !- Number of Vertices
  0, 0, 2.7,                              !- X,Y,Z Vertex 1 {m}
  0, 0, 0,                                !- X,Y,Z Vertex 2 {m}
  8, 0, 0,                                !- X,Y,Z Vertex 3 {m}
  8, 0, 2.7;                              !- X,Y,Z Vertex 4 {m}

OS:Surface,
  {3a23d102-2b9f-4c6f-8520-97e8a39147d9}, !- Handle
  ZONE SURFACE NORTH,                     !- Name
  Wall,                                   !- Surface Type
  {3c5188f9-8476-47d8-b117-3c7504d0dfd7}, !- Construction Name
  {a2199812-b449-4787-bdb6-8037dfcb6bca}, !- Space Name
  Outdoors,                               !- Outside Boundary Condition
  ,                                       !- Outside Boundary Condition Object
  SunExposed,                             !- Sun Exposure
  WindExposed,                            !- Wind Exposure
  0,                                      !- View Factor to Ground
  ,                                       !- Number of Vertices
  8, 6, 2.7,                              !- X,Y,Z Vertex 1 {m}
  8, 6, 0,                                !- X,Y,Z Vertex 2 {m}
  0, 6, 0,                                !- X,Y,Z Vertex 3 {m}
  0, 6, 2.7;                              !- X,Y,Z Vertex 4 {m}

OS:SurfaceProperty:ConvectionCoefficients:MultipleSurface,
  {744b237c-ae9a-4c74-afd0-5fef86295544}, !- Handle
  AllExteriorWalls,                       !- Surface Type
  Inside,                                 !- Convection Coefficient 1 Location
  Value,                                  !- Convection Coefficient 1 Type
  0.1,                                    !- Convection Coefficient 1 {W/m2-K}
  ,                                       !- Convection Coefficient 1 Schedule Name
  ,                                       !- Convection Coefficient 1 User Curve Name
  Outside,                                !- Convection Coefficient 2 Location
  Value,                                  !- Convection Coefficient 2 Type
  1e-07;                                  !- Convection Coefficient 2 {W/m2-K}

OS:SurfaceProperty:ConvectionCoefficients:MultipleSurface,
  {94bb71ed-25ca-4d08-b1a1-27138dd8a610}, !- Handle
  AllExteriorRoofs,                       !- Surface Type
  Inside,                                 !- Convection Coefficient 1 Location
  Value,                                  !- Convection Coefficient 1 Type
  20,                                     !- Convection Coefficient 1 {W/m2-K}
  ,                                       !- Convection Coefficient 1 Schedule Name
  ,                                       !- Convection Coefficient 1 User Curve Name
  Outside,                                !- Convection Coefficient 2 Location
  Value,                                  !- Convection Coefficient 2 Type
  20;                                     !- Convection Coefficient 2 {W/m2-K}

OS:Schedule:Ruleset,
  {a23e0051-c7bb-4d70-b293-57d4a0818271}, !- Handle
  No Cooling,                             !- Name
  {eb44f82e-b50d-4f6d-955b-085f1dfc68b8}, !- Schedule Type Limits Name
  {d4f27c59-da30-4129-a5cb-0b06f4df0cac}; !- Default Day Schedule Name

OS:ScheduleTypeLimits,
  {eb44f82e-b50d-4f6d-955b-085f1dfc68b8}, !- Handle
  Temperature,                            !- Name
  ,                                       !- Lower Limit Value
  ,                                       !- Upper Limit Value
  Continuous,                             !- Numeric Type
  Temperature;                            !- Unit Type

OS:Schedule:Day,
  {d4f27c59-da30-4129-a5cb-0b06f4df0cac}, !- Handle
  Schedule Day 5,                         !- Name
  {eb44f82e-b50d-4f6d-955b-085f1dfc68b8}, !- Schedule Type Limits Name
  ,                                       !- Interpolate to Timestep
  24,                                     !- Hour 1
  0,                                      !- Minute 1
  100;                                    !- Value Until Time 1

OS:Schedule:Constant,
  {4faea5fc-0e85-4ce7-a58f-8ed009158462}, !- Handle
  20.0 C,                                 !- Name
  {eb44f82e-b50d-4f6d-955b-085f1dfc68b8}, !- Schedule Type Limits Name
  20;                                     !- Value

OS:ThermostatSetpoint:DualSetpoint,
  {5de0e6af-8bd5-48c2-ab0d-9fb60e724406}, !- Handle
  Thermostat Setpoint Dual Setpoint 1,    !- Name
  {4faea5fc-0e85-4ce7-a58f-8ed009158462}, !- Heating Setpoint Temperature Schedule Name
  {a23e0051-c7bb-4d70-b293-57d4a0818271}; !- Cooling Setpoint Temperature Schedule Name

OS:Schedule:Constant,
  {04addd33-841b-4670-8442-e72967a6f634}, !- Handle
  Always On Discrete,                     !- Name
  {f64a01bb-68ad-4504-a5a9-3c72058cc712}, !- Schedule Type Limits Name
  1;                                      !- Value

OS:ScheduleTypeLimits,
  {f64a01bb-68ad-4504-a5a9-3c72058cc712}, !- Handle
  OnOff,                                  !- Name
  0,                                      !- Lower Limit Value
  1,                                      !- Upper Limit Value
  Discrete,                               !- Numeric Type
  Availability;                           !- Unit Type

OS:Schedule:Constant,
  {fd17084b-9553-4898-9d0d-f0add14f6e42}, !- Handle
  Always Off Discrete,                    !- Name
  {315f56eb-a940-4eee-ad58-579fe101f5d6}, !- Schedule Type Limits Name
  0;                                      !- Value

OS:ScheduleTypeLimits,
  {315f56eb-a940-4eee-ad58-579fe101f5d6}, !- Handle
  OnOff 1,                                !- Name
  0,                                      !- Lower Limit Value
  1,                                      !- Upper Limit Value
  Discrete,                               !- Numeric Type
  Availability;                           !- Unit Type

OS:AirLoopHVAC,
  {d708781e-ad56-4baf-a8b9-7bc99fba4436}, !- Handle
  BESTEST HE air loop,                    !- Name
  ,                                       !- Controller List Name
  {04addd33-841b-4670-8442-e72967a6f634}, !- Availability Schedule
  ,                                       !- Availability Manager
  0.355,                                  !- Design Supply Air Flow Rate {m3/s}
  ,                                       !- Branch List Name
  ,                                       !- Connector List Name
  {d0349e0a-7082-487e-b031-453d6db5d15c}, !- Supply Side Inlet Node Name
  {b322307f-6480-480e-b814-5ffaf9d2efd5}, !- Demand Side Outlet Node Name
  {2d137276-8b20-463f-97b7-a71eac491f9b}, !- Demand Side Inlet Node A
  {45efe501-0a5e-4c01-9185-16263adfb959}, !- Supply Side Outlet Node A
  ,                                       !- Demand Side Inlet Node B
  ;                                       !- Supply Side Outlet Node B

OS:Node,
  {ca5b56fc-b1fc-4fef-9b0b-f1a877d598b3}, !- Handle
  Node 2,                                 !- Name
  {d0349e0a-7082-487e-b031-453d6db5d15c}, !- Inlet Port
  {87a8ddfb-5f14-40a1-827a-b710ea1a3723}; !- Outlet Port

OS:Node,
  {ef44861a-6bc0-42b1-bb62-512b177a3bc3}, !- Handle
  Node 3,                                 !- Name
  {c8ac3e52-b598-4f58-9715-92ce42a8bc50}, !- Inlet Port
  {45efe501-0a5e-4c01-9185-16263adfb959}; !- Outlet Port

OS:Connection,
  {d0349e0a-7082-487e-b031-453d6db5d15c}, !- Handle
  {21696984-1e2b-46c3-980c-34b58ff2809c}, !- Name
  {d708781e-ad56-4baf-a8b9-7bc99fba4436}, !- Source Object
  8,                                      !- Outlet Port
  {ca5b56fc-b1fc-4fef-9b0b-f1a877d598b3}, !- Target Object
  2;                                      !- Inlet Port

OS:Connection,
  {45efe501-0a5e-4c01-9185-16263adfb959}, !- Handle
  {458f6e4e-75ab-4116-95d6-47b4c663a797}, !- Name
  {ef44861a-6bc0-42b1-bb62-512b177a3bc3}, !- Source Object
  3,                                      !- Outlet Port
  {d708781e-ad56-4baf-a8b9-7bc99fba4436}, !- Target Object
  11;                                     !- Inlet Port

OS:Node,
  {7b7736a2-1b4a-4297-965e-cdcf98077ea5}, !- Handle
  Node 4,                                 !- Name
  {2d137276-8b20-463f-97b7-a71eac491f9b}, !- Inlet Port