
OS:Version,
  {83fb41d7-6fa6-4334-9bc5-9d4ff62ec57f}, !- Handle
  2.1.1;                                  !- Version Identifier

OS:Site,
  {bc874655-a927-4872-a278-1347186bb1d9}, !- Handle
  Denver-Stapleton_CO_USA,                !- Name
  39.76,                                  !- Latitude {deg}
  -104.86,                                !- Longitude {deg}
  -7,                                     !- Time Zone {hr}
  1611,                                   !- Elevation {m}
  Country;                                !- Terrain

OS:YearDescription,
  {9116ce1c-534f-4b3a-9d15-2bb1a805c7e1}, !- Handle
  ,                                       !- Calendar Year
  ;                                       !- Day of Week for Start Day

OS:ClimateZones,
  {dd268d6b-2da7-4abc-b8ad-35d0988c56cd}, !- Handle
  ,                                       !- Active Institution
  ,                                       !- Active Year
  ASHRAE,                                 !- Climate Zone Institution Name 1
  ANSI/ASHRAE Standard 169,               !- Climate Zone Document Name 1
  2006,                                   !- Climate Zone Document Year 1
  ,                                       !- Climate Zone Value 1
  CEC,                                    !- Climate Zone Institution Name 2
  California Climate Zone Descriptions,   !- Climate Zone Document Name 2
  1995,                                   !- Climate Zone Document Year 2
  ;                                       !- Climate Zone Value 2

OS:Facility,
  {01cd2b0a-8ee0-4ab6-a2fb-9f6c7d21094d}; !- Handle

OS:SimulationControl,
  {30e9303f-ed23-491c-b310-8ef7274e967f}, !- Handle
  ,                                       !- Do Zone Sizing Calculation
  ,                                       !- Do System Sizing Calculation
  ,                                       !- Do Plant Sizing Calculation
  No,                                     !- Run Simulation for Sizing Periods
  ,                                       !- Run Simulation for Weather File Run Periods
  ,                                       !- Loads Convergence Tolerance Value
  ,                                       !- Temperature Convergence Tolerance Value {deltaC}
  FullInteriorAndExterior,                !- Solar Distribution
  ,                                       !- Maximum Number of Warmup Days
  6;                                      !- Minimum Number of Warmup Days

OS:Sizing:Parameters,
  {c983733e-8a2d-428d-8380-a9c380f3d01c}, !- Handle
  1.25,                                   !- Heating Sizing Factor
  1.15;                                   !- Cooling Sizing Factor

OS:Timestep,
  {7a470c9d-4813-47b4-b276-325100b7b62f}, !- Handle
  6;                                      !- Number of Timesteps per Hour

OS:ShadowCalculation,
  {21696cf9-7a12-43bf-ac4c-50d1be8bf2fd}, !- Handle
  20,                                     !- Calculation Frequency
  15000;                                  !- Maximum Figures in Shadow Overlap Calculations

OS:HeatBalanceAlgorithm,
  {09f4a614-27ba-43a9-a0ac-4379e03c44e8}, !- Handle
  ConductionTransferFunction,             !- Algorithm
  200;                                    !- Surface Temperature Upper Limit {C}

OS:RunPeriod,
  {322b0b21-e55e-459f-b4f2-853d2d37fd9a}, !- Handle
  Run Period 1,                           !- Name
  1,                                      !- Begin Month
  1,                                      !- Begin Day of Month
  12,                                     !- End Month
  31,                                     !- End Day of Month
  ,                                       !- Use Weather File Holidays and Special Days
  ,                                       !- Use Weather File Daylight Saving Period
  ,                                       !- Apply Weekend Holiday Rule
  ,                                       !- Use Weather File Rain Indicators
  ,                                       !- Use Weather File Snow Indicators
  ;                                       !- Number of Times Runperiod to be Repeated

OS:LifeCycleCost:Parameters,
  {a8ce31c8-7533-4ad7-aa7a-5380b4197455}, !- Handle
  ,                                       !- Analysis Type
  ,                                       !- Discounting Convention
  ,                                       !- Inflation Approach
  ,                                       !- Real Discount Rate
  ,                                       !- Nominal Discount Rate
  ,                                       !- Inflation
  ,                                       !- Base Date Month
  ,                                       !- Base Date Year
  ,                                       !- Service Date Month
  ,                                       !- Service Date Year
  ;                                       !- Length of Study Period in Years

OS:SurfaceConvectionAlgorithm:Inside,
  {8ac74477-4b34-4b92-a989-4140435838cd}, !- Handle
  TARP;                                   !- Algorithm

OS:SurfaceConvectionAlgorithm:Outside,
  {cda0eee8-c158-4084-aca3-dfabdef3d9cb}, !- Handle
  DOE-2;                                  !- Algorithm

OS:WeatherFile,
  {f23cb0c3-e679-44ca-86ff-b0ff3e341258}, !- Handle
  Denver-Stapleton,                       !- City
  CO,                                     !- State Province Region
  USA,                                    !- Country
  TMY--23062,                             !- Data Source
  724690,                                 !- WMO Number
  39.76,                                  !- Latitude {deg}
  -104.86,                                !- Longitude {deg}
  -7,                                     !- Time Zone {hr}
  1611,                                   !- Elevation {m}
  file:///Users/dgoldwas/Documents/GitHub/NREL/OSEP_BESTTEST/measures/bestest_building_thermal_envelope_and_fabric_load_reporting/tests/DRYCOLDTMY.epw, !- Url
  08DEB5B3;                               !- Checksum

OS:Building,
  {94b586c1-f243-47f3-b74b-a435eb602a0f}, !- Handle
  BESTEST Case 950FF,                     !- Name
  ,                                       !- Building Sector Type
  0,                                      !- North Axis {deg}
  ,                                       !- Nominal Floor to Floor Height {m}
  ,                                       !- Space Type Name
  {726d9812-9495-464a-8602-8f27e7993988}, !- Default Construction Set Name
  ,                                       !- Default Schedule Set Name
  ,                                       !- Standards Number of Stories
  ,                                       !- Standards Number of Above Ground Stories
  ,                                       !- Standards Building Type
  ,                                       !- Standards Number of Living Units
  ,                                       !- Relocatable
  ;                                       !- Nominal Floor to Ceiling Height {m}

OS:ThermalZone,
  {efddf369-d2b2-4ab6-a490-27e1edd32ce4}, !- Handle
  ZONE ONE,                               !- Name
  1,                                      !- Multiplier
  2.7,                                    !- Ceiling Height {m}
  129.6,                                  !- Volume {m3}
  ,                                       !- Floor Area {m2}
  ,                                       !- Zone Inside Convection Algorithm
  ,                                       !- Zone Outside Convection Algorithm
  ,                                       !- Zone Conditioning Equipment List Name
  {77036c84-9a34-4954-ba80-da8345f70299}, !- Zone Air Inlet Port List
  {715fb90d-f651-4035-9c17-e1e4f4967369}, !- Zone Air Exhaust Port List
  {a65de03d-4208-4c25-93de-789e4fbe4217}, !- Zone Air Node Name
  ,                                       !- Zone Return Air Node Name
  ,                                       !- Primary Daylighting Control Name
  ,                                       !- Fraction of Zone Controlled by Primary Daylighting Control
  ,                                       !- Secondary Daylighting Control Name
  ,                                       !- Fraction of Zone Controlled by Secondary Daylighting Control
  ,                                       !- Illuminance Map Name
  {2a39509b-dd96-4d62-9290-a2b05a7d88f1}, !- Group Rendering Name
  {f072d9bc-8441-46d0-a466-5451f7c62784}, !- Thermostat Name
  No,                                     !- Use Ideal Air Loads
  ;                                       !- Humidistat Name

OS:Rendering:Color,
  {2a39509b-dd96-4d62-9290-a2b05a7d88f1}, !- Handle
  Rendering Color 5,                      !- Name
  210,                                    !- Rendering Red Value
  180,                                    !- Rendering Green Value
  140;                                    !- Rendering Blue Value

OS:Node,
  {5714aec1-8381-4d2f-b966-e2e1c05ec411}, !- Handle
  Node 1,                                 !- Name
  {a65de03d-4208-4c25-93de-789e4fbe4217}, !- Inlet Port
  ;                                       !- Outlet Port

OS:Connection,
  {a65de03d-4208-4c25-93de-789e4fbe4217}, !- Handle
  {7faaf524-be06-44af-896b-368ce180becf}, !- Name
  {efddf369-d2b2-4ab6-a490-27e1edd32ce4}, !- Source Object
  11,                                     !- Outlet Port
  {5714aec1-8381-4d2f-b966-e2e1c05ec411}, !- Target Object
  2;                                      !- Inlet Port

OS:PortList,
  {77036c84-9a34-4954-ba80-da8345f70299}, !- Handle
  Port List 1,                            !- Name
  {efddf369-d2b2-4ab6-a490-27e1edd32ce4}; !- HVAC Component

OS:PortList,
  {715fb90d-f651-4035-9c17-e1e4f4967369}, !- Handle
  Port List 2,                            !- Name
  {efddf369-d2b2-4ab6-a490-27e1edd32ce4}; !- HVAC Component

OS:Sizing:Zone,
  {ac817657-0d65-4e24-95d0-10622743f146}, !- Handle
  {efddf369-d2b2-4ab6-a490-27e1edd32ce4}, !- Zone or ZoneList Name
  SupplyAirTemperature,                   !- Zone Cooling Design Supply Air Temperature Input Method
  14,                                     !- Zone Cooling Design Supply Air Temperature {C}
  11.11,                                  !- Zone Cooling Design Supply Air Temperature Difference {deltaC}
  SupplyAirTemperature,                   !- Zone Heating Design Supply Air Temperature Input Method
  40,                                     !- Zone Heating Design Supply Air Temperature {C}
  11.11,                                  !- Zone Heating Design Supply Air Temperature Difference {deltaC}
  0.0085,                                 !- Zone Cooling Design Supply Air Humidity Ratio {kg-H2O/kg-air}
  0.008,                                  !- Zone Heating Design Supply Air Humidity Ratio {kg-H2O/kg-air}
  ,                                       !- Zone Heating Sizing Factor
  ,                                       !- Zone Cooling Sizing Factor
  DesignDay,                              !- Cooling Design Air Flow Method
  ,                                       !- Cooling Design Air Flow Rate {m3/s}
  ,                                       !- Cooling Minimum Air Flow per Zone Floor Area {m3/s-m2}
  ,                                       !- Cooling Minimum Air Flow {m3/s}
  ,                                       !- Cooling Minimum Air Flow Fraction
  DesignDay,                              !- Heating Design Air Flow Method
  ,                                       !- Heating Design Air Flow Rate {m3/s}
  ,                                       !- Heating Maximum Air Flow per Zone Floor Area {m3/s-m2}
  ,                                       !- Heating Maximum Air Flow {m3/s}
  ,                                       !- Heating Maximum Air Flow Fraction
  ,                                       !- Design Zone Air Distribution Effectiveness in Cooling Mode
  ,                                       !- Design Zone Air Distribution Effectiveness in Heating Mode
  No,                                     !- Account for Dedicated Outdoor Air System
  NeutralSupplyAir,                       !- Dedicated Outdoor Air System Control Strategy
  autosize,                               !- Dedicated Outdoor Air Low Setpoint Temperature for Design {C}
  autosize;                               !- Dedicated Outdoor Air High Setpoint Temperature for Design {C}

OS:ZoneHVAC:EquipmentList,
  {beaf42c1-a3f9-4e83-9ee4-9d2f8200b5be}, !- Handle
  Zone HVAC Equipment List 1,             !- Name
  {efddf369-d2b2-4ab6-a490-27e1edd32ce4}; !- Thermal Zone

OS:ThermostatSetpoint:DualSetpoint,
  {f072d9bc-8441-46d0-a466-5451f7c62784}, !- Handle
  {737e7ee1-fb6a-448a-9660-8fe96d0d5a33}, !- Name
  {d4051958-3f90-4f60-a6f0-8a79083275a3}, !- Heating Setpoint Temperature Schedule Name
  {a053edb9-a1f8-430f-8f88-da4b746f1367}; !- Cooling Setpoint Temperature Schedule Name

OS:Schedule:Year,
  {d4051958-3f90-4f60-a6f0-8a79083275a3}, !- Handle
  Heating Setpoints,                      !- Name
  {b3106fbc-61ca-4957-b5d0-9a5ae67ca230}, !- Schedule Type Limits Name
  12,                                     !- Month 1
  31,                                     !- Day 1
  {1246f49f-f96d-4568-9c97-c454b13087cf}; !- Week Schedule Until Date 1

OS:Schedule:Year,
  {a053edb9-a1f8-430f-8f88-da4b746f1367}, !- Handle
  Cooling Setpoints,                      !- Name
  {b3106fbc-61ca-4957-b5d0-9a5ae67ca230}, !- Schedule Type Limits Name
  12,                                     !- Month 1
  31,                                     !- Day 1
  {6228c63c-60fc-4ac6-97b1-631051b1a225}; !- Week Schedule Until Date 1

OS:ScheduleTypeLimits,
  {b3106fbc-61ca-4957-b5d0-9a5ae67ca230}, !- Handle
  Temperature,                            !- Name
  -60,                                    !- Lower Limit Value
  200,                                    !- Upper Limit Value
  Continuous,                             !- Numeric Type
  Temperature;                            !- Unit Type

OS:Schedule:Week,
  {1246f49f-f96d-4568-9c97-c454b13087cf}, !- Handle
  Zone Heating Setpoint All Weeks,        !- Name
  ,                                       !- Schedule Rendering Name
  {cedeee82-47f9-48f9-b57c-576a00516a0a}, !- Sunday Schedule:Day Name
  {cedeee82-47f9-48f9-b57c-576a00516a0a}, !- Monday Schedule:Day Name
  {cedeee82-47f9-48f9-b57c-576a00516a0a}, !- Tuesday Schedule:Day Name
  {cedeee82-47f9-48f9-b57c-576a00516a0a}, !- Wednesday Schedule:Day Name
  {cedeee82-47f9-48f9-b57c-576a00516a0a}, !- Thursday Schedule:Day Name
  {cedeee82-47f9-48f9-b57c-576a00516a0a}, !- Friday Schedule:Day Name
  {cedeee82-47f9-48f9-b57c-576a00516a0a}, !- Saturday Schedule:Day Name
  {cedeee82-47f9-48f9-b57c-576a00516a0a}, !- Holiday Schedule:Day Name
  {cedeee82-47f9-48f9-b57c-576a00516a0a}, !- SummerDesignDay Schedule:Day Name
  {cedeee82-47f9-48f9-b57c-576a00516a0a}, !- WinterDesignDay Schedule:Day Name
  {cedeee82-47f9-48f9-b57c-576a00516a0a}, !- CustomDay1 Schedule:Day Name
  {cedeee82-47f9-48f9-b57c-576a00516a0a}; !- CustomDay2 Schedule:Day Name

OS:Schedule:Week,
  {6228c63c-60fc-4ac6-97b1-631051b1a225}, !- Handle
  Zone Cooling Setpoint All Weeks,        !- Name
  ,                                       !- Schedule Rendering Name
  {855d09ca-d15f-4ade-b675-40c3dd94021c}, !- Sunday Schedule:Day Name
  {855d09ca-d15f-4ade-b675-40c3dd94021c}, !- Monday Schedule:Day Name
  {855d09ca-d15f-4ade-b675-40c3dd94021c}, !- Tuesday Schedule:Day Name
  {855d09ca-d15f-4ade-b675-40c3dd94021c}, !- Wednesday Schedule:Day Name
  {855d09ca-d15f-4ade-b675-40c3dd94021c}, !- Thursday Schedule:Day Name
  {855d09ca-d15f-4ade-b675-40c3dd94021c}, !- Friday Schedule:Day Name
  {855d09ca-d15f-4ade-b675-40c3dd94021c}, !- Saturday Schedule:Day Name
  {855d09ca-d15f-4ade-b675-40c3dd94021c}, !- Holiday Schedule:Day Name
  {855d09ca-d15f-4ade-b675-40c3dd94021c}, !- SummerDesignDay Schedule:Day Name
  {855d09ca-d15f-4ade-b675-40c3dd94021c}, !- WinterDesignDay Schedule:Day Name
  {855d09ca-d15f-4ade-b675-40c3dd94021c}, !- CustomDay1 Schedule:Day Name
  {855d09ca-d15f-4ade-b675-40c3dd94021c}; !- CustomDay2 Schedule:Day Name

OS:Schedule:Day,
  {cedeee82-47f9-48f9-b57c-576a00516a0a}, !- Handle
  Zone Heating Setpoint All Days,         !- Name
  {b3106fbc-61ca-4957-b5d0-9a5ae67ca230}, !- Schedule Type Limits Name
  ,                                       !- Interpolate to Timestep
  1,                                      !- Hour 1
  0,                                      !- Minute 1
  20,                                     !- Value Until Time 1
  2,                                      !- Hour 2
  0,                                      !- Minute 2
  20,                                     !- Value Until Time 2
  3,                                      !- Hour 3
  0,                                      !- Minute 3
  20,                                     !- Value Until Time 3
  4,                                      !- Hour 4
  0,                                      !- Minute 4
  20,                                     !- Value Until Time 4
  5,                                      !- Hour 5
  0,                                      !- Minute 5
  20,                                     !- Value Until Time 5
  6,                                      !- Hour 6
  0,                                      !- Minute 6
  20,                                     !- Value Until Time 6
  7,                                      !- Hour 7
  0,                                      !- Minute 7
  20,                                     !- Value Until Time 7
  8,                                      !- Hour 8
  0,                                      !- Minute 8
  20,                                     !- Value Until Time 8
  9,                                      !- Hour 9
  0,                                      !- Minute 9
  20,                                     !- Value Until Time 9
  10,                                     !- Hour 10
  0,                                      !- Minute 10
  20,                                     !- Value Until Time 10
  11,                                     !- Hour 11
  0,                                      !- Minute 11
  20,                                     !- Value Until Time 11
  12,                                     !- Hour 12
  0,                                      !- Minute 12
  20,                                     !- Value Until Time 12
  13,                                     !- Hour 13
  0,                                      !- Minute 13
  20,                                     !- Value Until Time 13
  14,                                     !- Hour 14
  0,                                      !- Minute 14
  20,                                     !- Value Until Time 14
  15,                                     !- Hour 15
  0,                                      !- Minute 15
  20,                                     !- Value Until Time 15
  16,                                     !- Hour 16
  0,                                      !- Minute 16
  20,                                     !- Value Until Time 16
  17,                                     !- Hour 17
  0,                                      !- Minute 17
  20,                                     !- Value Until Time 17
  18,                                     !- Hour 18
  0,                                      !- Minute 18
  20,                                     !- Value Until Time 18
  19,                                     !- Hour 19
  0,                                      !- Minute 19
  20,                                     !- Value Until Time 19
  20,                                     !- Hour 20
  0,                                      !- Minute 20
  20,                                     !- Value Until Time 20
  21,                                     !- Hour 21
  0,                                      !- Minute 21
  20,                                     !- Value Until Time 21
  22,                                     !- Hour 22
  0,                                      !- Minute 22
  20,                                     !- Value Until Time 22
  23,                                     !- Hour 23
  0,                                      !- Minute 23
  20,                                     !- Value Until Time 23
  24,                                     !- Hour 24
  0,                                      !- Minute 24
  20;                                     !- Value Until Time 24

OS:Schedule:Day,
  {855d09ca-d15f-4ade-b675-40c3dd94021c}, !- Handle
  Zone Cooling Setpoint All Days,         !- Name
  {b3106fbc-61ca-4957-b5d0-9a5ae67ca230}, !- Schedule Type Limits Name
  ,                                       !- Interpolate to Timestep
  1,                                      !- Hour 1
  0,                                      !- Minute 1
  27,                                     !- Value Until Time 1
  2,                                      !- Hour 2
  0,                                      !- Minute 2
  27,                                     !- Value Until Time 2
  3,                                      !- Hour 3
  0,                                      !- Minute 3
  27,                                     !- Value Until Time 3
  4,                                      !- Hour 4
  0,                                      !- Minute 4
  27,                                     !- Value Until Time 4
  5,                                      !- Hour 5
  0,                                      !- Minute 5
  27,                                     !- Value Until Time 5
  6,                                      !- Hour 6
  0,                                      !- Minute 6
  27,                                     !- Value Until Time 6
  7,                                      !- Hour 7
  0,                                      !- Minute 7
  27,                                     !- Value Until Time 7
  8,                                      !- Hour 8
  0,                                      !- Minute 8
  27,                                     !- Value Until Time 8
  9,                                      !- Hour 9
  0,                                      !- Minute 9
  27,                                     !- Value Until Time 9
  10,                                     !- Hour 10
  0,                                      !- Minute 10
  27,                                     !- Value Until Time 10
  11,                                     !- Hour 11
  0,                                      !- Minute 11
  27,                                     !- Value Until Time 11
  12,                                     !- Hour 12
  0,                                      !- Minute 12
  27,                                     !- Value Until Time 12
  13,                                     !- Hour 13
  0,                                      !- Minute 13
  27,                                     !- Value Until Time 13
  14,                                     !- Hour 14
  0,                                      !- Minute 14
  27,                                     !- Value Until Time 14
  15,                                     !- Hour 15
  0,                                      !- Minute 15
  27,                                     !- Value Until Time 15
  16,                                     !- Hour 16
  0,                                      !- Minute 16
  27,                                     !- Value Until Time 16
  17,                                     !- Hour 17
  0,                                      !- Minute 17
  27,                                     !- Value Until Time 17
  18,                                     !- Hour 18
  0,                                      !- Minute 18
  27,                                     !- Value Until Time 18
  19,                                     !- Hour 19
  0,                                      !- Minute 19
  27,                                     !- Value Until Time 19
  20,                                     !- Hour 20
  0,                                      !- Minute 20
  27,                                     !- Value Until Time 20
  21,                                     !- Hour 21
  0,                                      !- Minute 21
  27,                                     !- Value Until Time 21
  22,                                     !- Hour 22
  0,                                      !- Minute 22
  27,                                     !- Value Until Time 22
  23,                                     !- Hour 23
  0,                                      !- Minute 23
  27,                                     !- Value Until Time 23
  24,                                     !- Hour 24
  0,                                      !- Minute 24
  27;                                     !- Value Until Time 24

OS:Space,
  {b747132b-87f5-40ca-a93b-3fc67db4dae7}, !- Handle
  ZONE ONE Space,                         !- Name
  ,                                       !- Space Type Name
  ,                                       !- Default Construction Set Name
  ,                                       !- Default Schedule Set Name
  0,                                      !- Direction of Relative North {deg}
  0,                                      !- X Origin {m}
  0,                                      !- Y Origin {m}
  0,                                      !- Z Origin {m}
  ,                                       !- Building Story Name
  {efddf369-d2b2-4ab6-a490-27e1edd32ce4}, !- Thermal Zone Name
  ,                                       !- Part of Total Floor Area
  ;                                       !- Design Specification Outdoor Air Object Name

OS:Surface,
  {67bf9564-ceed-41f4-aa66-809193e9ffd7}, !- Handle
  ZONE SURFACE NORTH,                     !- Name
  Wall,                                   !- Surface Type
  ,                                       !- Construction Name
  {b747132b-87f5-40ca-a93b-3fc67db4dae7}, !- Space Name
  Outdoors,                               !- Outside Boundary Condition
  ,                                       !- Outside Boundary Condition Object
  SunExposed,                             !- Sun Exposure
  WindExposed,                            !- Wind Exposure
  0.5,                                    !- View Factor to Ground
  ,                                       !- Number of Vertices
  8, 6, 2.7,                              !- X,Y,Z Vertex 1 {m}
  8, 6, 0,                                !- X,Y,Z Vertex 2 {m}
  0, 6, 0,                                !- X,Y,Z Vertex 3 {m}
  0, 6, 2.7;                              !- X,Y,Z Vertex 4 {m}

OS:Surface,
  {762c92c9-972f-4b50-9e9b-2b7c66e6da10}, !- Handle
  ZONE SURFACE SOUTH,                     !- Name
  Wall,                                   !- Surface Type
  ,                                       !- Construction Name
  {b747132b-87f5-40ca-a93b-3fc67db4dae7}, !- Space Name
  Outdoors,                               !- Outside Boundary Condition
  ,                                       !- Outside Boundary Condition Object
  SunExposed,                             !- Sun Exposure
  WindExposed,                            !- Wind Exposure
  0.5,                                    !- View Factor to Ground
  ,                                       !- Number of Vertices
  0, 0, 2.7,                              !- X,Y,Z Vertex 1 {m}
  0, 0, 0,                                !- X,Y,Z Vertex 2 {m}
  8, 0, 0,                                !- X,Y,Z Vertex 3 {m}
  8, 0, 2.7;                              !- X,Y,Z Vertex 4 {m}

OS:SubSurface,
  {41960893-7cce-4a92-ae5d-1379029bf123}, !- Handle
  ZONE SUBSURFACE 2,                      !- Name
  FixedWindow,                            !- Sub Surface Type
  ,                                       !- Construction Name
  {762c92c9-972f-4b50-9e9b-2b7c66e6da10}, !- Surface Name
  ,                                       !- Outside Boundary Condition Object
  0.5,                                    !- View Factor to Ground
  ,                                       !- Shading Control Name
  ,                                       !- Frame and Divider Name
  1,                                      !- Multiplier
  ,                                       !- Number of Vertices
  4.5, 0, 2.2,                            !- X,Y,Z Vertex 1 {m}
  4.5, 0, 0.2,                            !- X,Y,Z Vertex 2 {m}
  7.5, 0, 0.2,                            !- X,Y,Z Vertex 3 {m}
  7.5, 0, 2.2;                            !- X,Y,Z Vertex 4 {m}

OS:SubSurface,
  {376d6e0b-0348-43f3-9e4e-9e7df8712399}, !- Handle
  ZONE SUBSURFACE 1,                      !- Name
  FixedWindow,                            !- Sub Surface Type
  ,                                       !- Construction Name
  {762c92c9-972f-4b50-9e9b-2b7c66e6da10}, !- Surface Name
  ,                                       !- Outside Boundary Condition Object
  0.5,                                    !- View Factor to Ground
  ,                                       !- Shading Control Name
  ,                                       !- Frame and Divider Name
  1,                                      !- Multiplier
  ,                                       !- Number of Vertices
  0.5, 0, 2.2,                            !- X,Y,Z Vertex 1 {m}
  0.5, 0, 0.2,                            !- X,Y,Z Vertex 2 {m}
  3.5, 0, 0.2,                            !- X,Y,Z Vertex 3 {m}
  3.5, 0, 2.2;                            !- X,Y,Z Vertex 4 {m}

OS:Surface,
  {e4c25ac7-aa9f-4f50-8907-a8e18865433f}, !- Handle
  ZONE SURFACE EAST,                      !- Name
  Wall,                                   !- Surface Type
  ,                                       !- Construction Name
  {b747132b-87f5-40ca-a93b-3fc67db4dae7}, !- Space Name
  Outdoors,                               !- Outside Boundary Condition
  ,                                       !- Outside Boundary Condition Object
  SunExposed,                             !- Sun Exposure
  WindExposed,                            !- Wind Exposure