
OS:Version,
  {f703fb52-28b6-4ea8-89ae-fc2d52214a35}, !- Handle
  3.2.0;                                  !- Version Identifier

OS:Schedule:Constant,
  {6c5c5136-5543-46b3-9e20-8b7a088214a5}, !- Handle
  Always On Discrete,                     !- Name
  {b97a6365-c400-4308-afd7-2e20f0cceb21}, !- Schedule Type Limits Name
  1;                                      !- Value

OS:ScheduleTypeLimits,
  {b97a6365-c400-4308-afd7-2e20f0cceb21}, !- Handle
  Always On Discrete Limits,              !- Name
  0,                                      !- Lower Limit Value
  1,                                      !- Upper Limit Value
  Discrete,                               !- Numeric Type
  Availability;                           !- Unit Type

OS:Site,
  {bc874655-a927-4872-a278-1347186bb1d9}, !- Handle
  Denver-Stapleton_CO_USA,                !- Name
  39.76,                                  !- Latitude {deg}
  -104.86,                                !- Longitude {deg}
  -7,                                     !- Time Zone {hr}
  1611,                                   !- Elevation {m}
  Country;                                !- Terrain

OS:YearDescription,
  {9116ce1c-534f-4b3a-9d15-2bb1a805c7e1}, !- Handle
  2009,                                   !- Calendar Year
  ,                                       !- Day of Week for Start Day
  ;                                       !- Is Leap Year

OS:ClimateZones,
  {dd268d6b-2da7-4abc-b8ad-35d0988c56cd}, !- Handle
  ASHRAE,                                 !- Climate Zone Institution Name 1
  ANSI/ASHRAE Standard 169,               !- Climate Zone Document Name 1
  2006,                                   !- Climate Zone Document Year 1
  ,                                       !- Climate Zone Value 1
  CEC,                                    !- Climate Zone Institution Name 2
  California Climate Zone Descriptions,   !- Climate Zone Document Name 2
  1995,                                   !- Climate Zone Document Year 2
  ;                                       !- Climate Zone Value 2

OS:Facility,
  {01cd2b0a-8ee0-4ab6-a2fb-9f6c7d21094d}; !- Handle

OS:SimulationControl,
  {30e9303f-ed23-491c-b310-8ef7274e967f}, !- Handle
  ,                                       !- Do Zone Sizing Calculation
  ,                                       !- Do System Sizing Calculation
  ,                                       !- Do Plant Sizing Calculation
  No,                                     !- Run Simulation for Sizing Periods
  ,                                       !- Run Simulation for Weather File Run Periods
  ,                                       !- Loads Convergence Tolerance Value {W}
  ,                                       !- Temperature Convergence Tolerance Value {deltaC}
  FullInteriorAndExterior,                !- Solar Distribution
  ,                                       !- Maximum Number of Warmup Days
  6;                                      !- Minimum Number of Warmup Days

OS:Sizing:Parameters,
  {c983733e-8a2d-428d-8380-a9c380f3d01c}, !- Handle
  1.25,                                   !- Heating Sizing Factor
  1.15;                                   !- Cooling Sizing Factor

OS:Timestep,
  {7a470c9d-4813-47b4-b276-325100b7b62f}, !- Handle
  4;                                      !- Number of Timesteps per Hour

OS:ShadowCalculation,
  {21696cf9-7a12-43bf-ac4c-50d1be8bf2fd}, !- Handle
  PolygonClipping,                        !- Shading Calculation Method
  ,                                       !- Shading Calculation Update Frequency Method
  1,                                      !- Shading Calculation Update Frequency
  15000,                                  !- Maximum Figures in Shadow Overlap Calculations
  ,                                       !- Polygon Clipping Algorithm
  512,                                    !- Pixel Counting Resolution
  ,                                       !- Sky Diffuse Modeling Algorithm
  No,                                     !- Output External Shading Calculation Results
  No,                                     !- Disable Self-Shading Within Shading Zone Groups
  No;                                     !- Disable Self-Shading From Shading Zone Groups to Other Zones

OS:HeatBalanceAlgorithm,
  {09f4a614-27ba-43a9-a0ac-4379e03c44e8}, !- Handle
  ConductionTransferFunction,             !- Algorithm
  200;                                    !- Surface Temperature Upper Limit {C}

OS:RunPeriod,
  {322b0b21-e55e-459f-b4f2-853d2d37fd9a}, !- Handle
  Run Period 1,                           !- Name
  1,                                      !- Begin Month
  1,                                      !- Begin Day of Month
  12,                                     !- End Month
  31,                                     !- End Day of Month
  ,                                       !- Use Weather File Holidays and Special Days
  ,                                       !- Use Weather File Daylight Saving Period
  ,                                       !- Apply Weekend Holiday Rule
  ,                                       !- Use Weather File Rain Indicators
  ,                                       !- Use Weather File Snow Indicators
  ;                                       !- Number of Times Runperiod to be Repeated

OS:LifeCycleCost:Parameters,
  {a8ce31c8-7533-4ad7-aa7a-5380b4197455}, !- Handle
  ,                                       !- Analysis Type
  ,                                       !- Discounting Convention
  ,                                       !- Inflation Approach
  ,                                       !- Real Discount Rate
  ,                                       !- Nominal Discount Rate
  ,                                       !- Inflation
  ,                                       !- Base Date Month
  ,                                       !- Base Date Year
  ,                                       !- Service Date Month
  ,                                       !- Service Date Year
  ;                                       !- Length of Study Period in Years

OS:WeatherFile,
  {483a2946-23e3-44d4-94a2-61fe3daf15d4}, !- Handle
  Denver-Stapleton,                       !- City
  CO,                                     !- State Province Region
  USA,                                    !- Country
  TMY--23062,                             !- Data Source
  724690,                                 !- WMO Number
  39.76,                                  !- Latitude {deg}
  -104.86,                                !- Longitude {deg}
  -7,                                     !- Time Zone {hr}
  1611,                                   !- Elevation {m}
  /Users/dgoldwas/Documents/GitHub/NREL/BESTEST-GSR/measures/bestest_building_thermal_envelope_and_fabric_load/resources/DRYCOLDTMY.epw, !- Url
  08DEB5B3;                               !- Checksum

OS:SurfaceConvectionAlgorithm:Inside,
  {e0be5c60-0d94-4d44-a0dd-5399c60ea514}, !- Handle
  TARP;                                   !- Algorithm

OS:SurfaceConvectionAlgorithm:Outside,
  {d8ac6d3f-d035-4d9c-9c6a-a80665d327ce}, !- Handle
  DOE-2;                                  !- Algorithm

OS:Building,
  {e601b3e0-024b-4884-908e-ed220538e9ae}, !- Handle
  BESTEST Case 195 - Solid Conduction Test, !- Name
  ,                                       !- Building Sector Type
  0,                                      !- North Axis {deg}
  ,                                       !- Nominal Floor to Floor Height {m}
  ,                                       !- Space Type Name
  {c2b9069c-8e6e-442c-abd5-6bb3e4ef7410}, !- Default Construction Set Name
  ,                                       !- Default Schedule Set Name
  ,                                       !- Standards Number of Stories
  ,                                       !- Standards Number of Above Ground Stories
  ,                                       !- Standards Template
  ,                                       !- Standards Building Type
  ,                                       !- Standards Number of Living Units
  ,                                       !- Relocatable
  ;                                       !- Nominal Floor to Ceiling Height {m}

OS:ThermalZone,
  {cd470e93-b2c6-4fdd-a00b-ab5ddd8402f4}, !- Handle
  ZONE ONE,                               !- Name
  1,                                      !- Multiplier
  2.7,                                    !- Ceiling Height {m}
  129.6,                                  !- Volume {m3}
  ,                                       !- Floor Area {m2}
  ,                                       !- Zone Inside Convection Algorithm
  ,                                       !- Zone Outside Convection Algorithm
  ,                                       !- Zone Conditioning Equipment List Name
  {20260304-6024-4667-9f92-b14b979bdc78}, !- Zone Air Inlet Port List
  {c0fa99c9-a112-49ce-a72b-5205644c73a7}, !- Zone Air Exhaust Port List
  {d9fce1b1-85f5-428a-919e-a848b6801e51}, !- Zone Air Node Name
  {06ac20df-ac6c-42e7-aae8-2625c86e61d0}, !- Zone Return Air Port List
  ,                                       !- Primary Daylighting Control Name
  ,                                       !- Fraction of Zone Controlled by Primary Daylighting Control
  ,                                       !- Secondary Daylighting Control Name
  ,                                       !- Fraction of Zone Controlled by Secondary Daylighting Control
  ,                                       !- Illuminance Map Name
  {8c9baab7-8f4c-4a10-8d53-411043bf4424}, !- Group Rendering Name
  {b920c29e-b00e-473c-908c-987e5aea685a}, !- Thermostat Name
  No,                                     !- Use Ideal Air Loads
  ;                                       !- Humidistat Name

OS:Rendering:Color,
  {8c9baab7-8f4c-4a10-8d53-411043bf4424}, !- Handle
  Rendering Color 5,                      !- Name
  210,                                    !- Rendering Red Value
  180,                                    !- Rendering Green Value
  140;                                    !- Rendering Blue Value

OS:Node,
  {cf002e49-4afc-4da2-a33c-f6954f763c12}, !- Handle
  Node 1,                                 !- Name
  {d9fce1b1-85f5-428a-919e-a848b6801e51}, !- Inlet Port
  ;                                       !- Outlet Port

OS:Connection,
  {d9fce1b1-85f5-428a-919e-a848b6801e51}, !- Handle
  {cd470e93-b2c6-4fdd-a00b-ab5ddd8402f4}, !- Source Object
  11,                                     !- Outlet Port
  {cf002e49-4afc-4da2-a33c-f6954f763c12}, !- Target Object
  2;                                      !- Inlet Port

OS:PortList,
  {20260304-6024-4667-9f92-b14b979bdc78}, !- Handle
  {cd470e93-b2c6-4fdd-a00b-ab5ddd8402f4}, !- HVAC Component
  {fbc42429-eb8c-4a98-adea-04cac5c53c23}; !- Port 1

OS:PortList,
  {c0fa99c9-a112-49ce-a72b-5205644c73a7}, !- Handle
  {cd470e93-b2c6-4fdd-a00b-ab5ddd8402f4}, !- HVAC Component
  {c31f98c8-f368-493f-a54a-a7a4f36d5ab0}; !- Port 1

OS:PortList,
  {06ac20df-ac6c-42e7-aae8-2625c86e61d0}, !- Handle
  {cd470e93-b2c6-4fdd-a00b-ab5ddd8402f4}; !- HVAC Component

OS:Sizing:Zone,
  {610d1f56-bfbc-46dd-ab85-f598c23df4d2}, !- Handle
  {cd470e93-b2c6-4fdd-a00b-ab5ddd8402f4}, !- Zone or ZoneList Name
  SupplyAirTemperature,                   !- Zone Cooling Design Supply Air Temperature Input Method
  14,                                     !- Zone Cooling Design Supply Air Temperature {C}
  11.11,                                  !- Zone Cooling Design Supply Air Temperature Difference {deltaC}
  SupplyAirTemperature,                   !- Zone Heating Design Supply Air Temperature Input Method
  40,                                     !- Zone Heating Design Supply Air Temperature {C}
  11.11,                                  !- Zone Heating Design Supply Air Temperature Difference {deltaC}
  0.0085,                                 !- Zone Cooling Design Supply Air Humidity Ratio {kg-H2O/kg-air}
  0.008,                                  !- Zone Heating Design Supply Air Humidity Ratio {kg-H2O/kg-air}
  ,                                       !- Zone Heating Sizing Factor
  ,                                       !- Zone Cooling Sizing Factor
  DesignDay,                              !- Cooling Design Air Flow Method
  ,                                       !- Cooling Design Air Flow Rate {m3/s}
  ,                                       !- Cooling Minimum Air Flow per Zone Floor Area {m3/s-m2}
  ,                                       !- Cooling Minimum Air Flow {m3/s}
  ,                                       !- Cooling Minimum Air Flow Fraction
  DesignDay,                              !- Heating Design Air Flow Method
  ,                                       !- Heating Design Air Flow Rate {m3/s}
  ,                                       !- Heating Maximum Air Flow per Zone Floor Area {m3/s-m2}
  ,                                       !- Heating Maximum Air Flow {m3/s}
  ,                                       !- Heating Maximum Air Flow Fraction
  No,                                     !- Account for Dedicated Outdoor Air System
  NeutralSupplyAir,                       !- Dedicated Outdoor Air System Control Strategy
  autosize,                               !- Dedicated Outdoor Air Low Setpoint Temperature for Design {C}
  autosize;                               !- Dedicated Outdoor Air High Setpoint Temperature for Design {C}

OS:ZoneHVAC:EquipmentList,
  {7bb1c2e7-51a4-4866-b906-b56c043442d6}, !- Handle
  Zone HVAC Equipment List 1,             !- Name
  {cd470e93-b2c6-4fdd-a00b-ab5ddd8402f4}, !- Thermal Zone
  ,                                       !- Load Distribution Scheme
  {d8caf47d-bf0e-4313-afa0-6539f5544069}, !- Zone Equipment 1
  1,                                      !- Zone Equipment Cooling Sequence 1
  1,                                      !- Zone Equipment Heating or No-Load Sequence 1
  ,                                       !- Zone Equipment Sequential Cooling Fraction Schedule Name 1
  ;                                       !- Zone Equipment Sequential Heating Fraction Schedule Name 1

OS:Schedule:Year,
  {03ae9431-9ba6-4354-9d07-7399fc9f3a63}, !- Handle
  Heating Setpoints,                      !- Name
  {2bc93703-1be4-41a9-a7c7-82a79270fbd2}, !- Schedule Type Limits Name
  12,                                     !- Month 1
  31,                                     !- Day 1
  {4f684369-da46-449c-bbda-40c2662016a2}; !- Week Schedule Until Date 1

OS:Schedule:Year,
  {2bdf5216-83bf-40bd-92fa-c6060e4b22b9}, !- Handle
  Cooling Setpoints,                      !- Name
  {2bc93703-1be4-41a9-a7c7-82a79270fbd2}, !- Schedule Type Limits Name
  12,                                     !- Month 1
  31,                                     !- Day 1
  {abae9de2-bdb5-4063-9bad-d69a0b738194}; !- Week Schedule Until Date 1

OS:ScheduleTypeLimits,
  {2bc93703-1be4-41a9-a7c7-82a79270fbd2}, !- Handle
  Temperature,                            !- Name
  -60,                                    !- Lower Limit Value
  200,                                    !- Upper Limit Value
  Continuous,                             !- Numeric Type
  Temperature;                            !- Unit Type

OS:Schedule:Week,
  {4f684369-da46-449c-bbda-40c2662016a2}, !- Handle
  Zone Heating Setpoint All Weeks,        !- Name
  ,                                       !- Schedule Rendering Name
  {db7734ee-3c4d-4573-a5a1-aa851aa8554f}, !- Sunday Schedule:Day Name
  {db7734ee-3c4d-4573-a5a1-aa851aa8554f}, !- Monday Schedule:Day Name
  {db7734ee-3c4d-4573-a5a1-aa851aa8554f}, !- Tuesday Schedule:Day Name
  {db7734ee-3c4d-4573-a5a1-aa851aa8554f}, !- Wednesday Schedule:Day Name
  {db7734ee-3c4d-4573-a5a1-aa851aa8554f}, !- Thursday Schedule:Day Name
  {db7734ee-3c4d-4573-a5a1-aa851aa8554f}, !- Friday Schedule:Day Name
  {db7734ee-3c4d-4573-a5a1-aa851aa8554f}, !- Saturday Schedule:Day Name
  {db7734ee-3c4d-4573-a5a1-aa851aa8554f}, !- Holiday Schedule:Day Name
  {db7734ee-3c4d-4573-a5a1-aa851aa8554f}, !- SummerDesignDay Schedule:Day Name
  {db7734ee-3c4d-4573-a5a1-aa851aa8554f}, !- WinterDesignDay Schedule:Day Name
  {db7734ee-3c4d-4573-a5a1-aa851aa8554f}, !- CustomDay1 Schedule:Day Name
  {db7734ee-3c4d-4573-a5a1-aa851aa8554f}; !- CustomDay2 Schedule:Day Name

OS:Schedule:Week,
  {abae9de2-bdb5-4063-9bad-d69a0b738194}, !- Handle
  Zone Cooling Setpoint All Weeks,        !- Name
  ,                                       !- Schedule Rendering Name
  {142332cd-32c5-440a-b069-5159d45cc967}, !- Sunday Schedule:Day Name
  {142332cd-32c5-440a-b069-5159d45cc967}, !- Monday Schedule:Day Name
  {142332cd-32c5-440a-b069-5159d45cc967}, !- Tuesday Schedule:Day Name
  {142332cd-32c5-440a-b069-5159d45cc967}, !- Wednesday Schedule:Day Name
  {142332cd-32c5-440a-b069-5159d45cc967}, !- Thursday Schedule:Day Name
  {142332cd-32c5-440a-b069-5159d45cc967}, !- Friday Schedule:Day Name
  {142332cd-32c5-440a-b069-5159d45cc967}, !- Saturday Schedule:Day Name
  {142332cd-32c5-440a-b069-5159d45cc967}, !- Holiday Schedule:Day Name
  {142332cd-32c5-440a-b069-5159d45cc967}, !- SummerDesignDay Schedule:Day Name
  {142332cd-32c5-440a-b069-5159d45cc967}, !- WinterDesignDay Schedule:Day Name
  {142332cd-32c5-440a-b069-5159d45cc967}, !- CustomDay1 Schedule:Day Name
  {142332cd-32c5-440a-b069-5159d45cc967}; !- CustomDay2 Schedule:Day Name

OS:Schedule:Day,
  {db7734ee-3c4d-4573-a5a1-aa851aa8554f}, !- Handle
  Zone Heating Setpoint All Days,         !- Name
  {2bc93703-1be4-41a9-a7c7-82a79270fbd2}, !- Schedule Type Limits Name
  ,                                       !- Interpolate to Timestep
  1,                                      !- Hour 1
  0,                                      !- Minute 1
  20,                                     !- Value Until Time 1
  2,                                      !- Hour 2
  0,                                      !- Minute 2
  20,                                     !- Value Until Time 2
  3,                                      !- Hour 3
  0,                                      !- Minute 3
  20,                                     !- Value Until Time 3
  4,                                      !- Hour 4
  0,                                      !- Minute 4
  20,                                     !- Value Until Time 4
  5,                                      !- Hour 5
  0,                                      !- Minute 5
  20,                                     !- Value Until Time 5
  6,                                      !- Hour 6
  0,                                      !- Minute 6
  20,                                     !- Value Until Time 6
  7,                                      !- Hour 7
  0,                                      !- Minute 7
  20,                                     !- Value Until Time 7
  8,                                      !- Hour 8
  0,                                      !- Minute 8
  20,                                     !- Value Until Time 8
  9,                                      !- Hour 9
  0,                                      !- Minute 9
  20,                                     !- Value Until Time 9
  10,                                     !- Hour 10
  0,                                      !- Minute 10
  20,                                     !- Value Until Time 10
  11,                                     !- Hour 11
  0,                                      !- Minute 11
  20,                                     !- Value Until Time 11
  12,                                     !- Hour 12
  0,                                      !- Minute 12
  20,                                     !- Value Until Time 12
  13,                                     !- Hour 13
  0,                                      !- Minute 13
  20,                                     !- Value Until Time 13
  14,                                     !- Hour 14
  0,                                      !- Minute 14
  20,                                     !- Value Until Time 14
  15,                                     !- Hour 15
  0,                                      !- Minute 15
  20,                                     !- Value Until Time 15
  16,                                     !- Hour 16
  0,                                      !- Minute 16
  20,                                     !- Value Until Time 16
  17,                                     !- Hour 17
  0,                                      !- Minute 17
  20,                                     !- Value Until Time 17
  18,                                     !- Hour 18
  0,                                      !- Minute 18
  20,                                     !- Value Until Time 18
  19,                                     !- Hour 19
  0,                                      !- Minute 19
  20,                                     !- Value Until Time 19
  20,                                     !- Hour 20
  0,                                      !- Minute 20
  20,                                     !- Value Until Time 20
  21,                                     !- Hour 21
  0,                                      !- Minute 21
  20,                                     !- Value Until Time 21
  22,                                     !- Hour 22
  0,                                      !- Minute 22
  20,                                     !- Value Until Time 22
  23,                                     !- Hour 23
  0,                                      !- Minute 23
  20,                                     !- Value Until Time 23
  24,                                     !- Hour 24
  0,                                      !- Minute 24
  20;                                     !- Value Until Time 24

OS:Schedule:Day,
  {142332cd-32c5-440a-b069-5159d45cc967}, !- Handle
  Zone Cooling Setpoint All Days,         !- Name
  {2bc93703-1be4-41a9-a7c7-82a79270fbd2}, !- Schedule Type Limits Name
  ,                                       !- Interpolate to Timestep
  1,                                      !- Hour 1
  0,                                      !- Minute 1
  27,                                     !- Value Until Time 1
  2,                                      !- Hour 2
  0,                                      !- Minute 2
  27,                                     !- Value Until Time 2
  3,                                      !- Hour 3
  0,                                      !- Minute 3
  27,                                     !- Value Until Time 3
  4,                                      !- Hour 4
  0,                                      !- Minute 4
  27,                                     !- Value Until Time 4
  5,                                      !- Hour 5
  0,                                      !- Minute 5
  27,                                     !- Value Until Time 5
  6,                                      !- Hour 6
  0,                                      !- Minute 6
  27,                                     !- Value Until Time 6
  7,                                      !- Hour 7
  0,                                      !- Minute 7
  27,                                     !- Value Until Time 7
  8,                                      !- Hour 8
  0,                                      !- Minute 8
  27,                                     !- Value Until Time 8
  9,                                      !- Hour 9
  0,                                      !- Minute 9
  27,                                     !- Value Until Time 9
  10,                                     !- Hour 10
  0,                                      !- Minute 10
  27,                                     !- Value Until Time 10
  11,                                     !- Hour 11
  0,                                      !- Minute 11
  27,                                     !- Value Until Time 11
  12,                                     !- Hour 12
  0,                                      !- Minute 12
  27,                                     !- Value Until Time 12
  13,                                     !- Hour 13
  0,                                      !- Minute 13
  27,                                     !- Value Until Time 13
  14,                                     !- Hour 14
  0,                                      !- Minute 14
  27,                                     !- Value Until Time 14
  15,                                     !- Hour 15
  0,                                      !- Minute 15
  27,                                     !- Value Until Time 15
  16,                                     !- Hour 16
  0,                                      !- Minute 16
  27,                                     !- Value Until Time 16
  17,                                     !- Hour 17
  0,                                      !- Minute 17
  27,                                     !- Value Until Time 17
  18,                                     !- Hour 18
  0,                                      !- Minute 18
  27,                                     !- Value Until Time 18
  19,                                     !- Hour 19
  0,                                      !- Minute 19
  27,                                     !- Value Until Time 19
  20,                                     !- Hour 20
  0,                                      !- Minute 20
  27,                                     !- Value Until Time 20
  21,                                     !- Hour 21
  0,                                      !- Minute 21
  27,                                     !- Value Until Time 21
  22,                                     !- Hour 22
  0,                                      !- Minute 22
  27,                                     !- Value Until Time 22
  23,                                     !- Hour 23
  0,                                      !- Minute 23
  27,                                     !- Value Until Time 23
  24,                                     !- Hour 24
  0,                                      !- Minute 24
  27;                                     !- Value Until Time 24

OS:Space,
  {03ece817-ea5b-4279-bc8a-c6caf308a727}, !- Handle
  ZONE ONE Space,                         !- Name
  ,                                       !- Space Type Name
  ,                                       !- Default Construction Set Name
  ,                                       !- Default Schedule Set Name
  0,                                      !- Direction of Relative North {deg}
  0,                                      !- X Origin {m}
  0,                                      !- Y Origin {m}
  0,                                      !- Z Origin {m}
  ,                                       !- Building Story Name
  {cd470e93-b2c6-4fdd-a00b-ab5ddd8402f4}, !- Thermal Zone Name
  ,                                       !- Part of Total Floor Area
  ;                                       !- Design Specification Outdoor Air Object Name

OS:Surface,
  {66ca5cde-5e3e-442c-aaef-645c0a27c283}, !- Handle
  ZONE SURFACE NORTH,                     !- Name
  Wall,                                   !- Surface Type
  ,                                       !- Construction Name
  {03ece817-ea5b-4279-bc8a-c6caf308a727}, !- Space Name
  Outdoors,                               !- Outside Boundary Condition
  ,                                       !- Outside Boundary Condition Object
  SunExposed,                             !- Sun Exposure
  WindExposed,                            !- Wind Exposure
  0.5,                                    !- View Factor to Ground
  ,                                       !- Number of Vertices
  8, 6, 2.7,                              !- X,Y,Z Vertex 1 {m}
  8, 6, 0,                                !- X,Y,Z Vertex 2 {m}
  0, 6, 0,                                !- X,Y,Z Vertex 3 {m}
  0, 6, 2.7;                              !- X,Y,Z Vertex 4 {m}

OS:Surface,
  {5e55f429-efed-4866-90a9-c346e5abd2ec}, !- Handle
  ZONE SURFACE SOUTH,                     !- Name
  Wall,                                   !- Surface Type
  ,                                       !- Construction Name
  {03ece817-ea5b-4279-bc8a-c6caf308a727}, !- Space Name
  Outdoors,                               !- Outside Boundary Condition
  ,                                       !- Outside Boundary Condition Object
  SunExposed,                             !- Sun Exposure
  WindExposed,                            !- Wind Exposure
  0.5,                                    !- View Factor to Ground
  ,                                       !- Number of Vertices
  0, 0, 2.7,                              !- X,Y,Z Vertex 1 {m}
  0, 0, 0,                                !- X,Y,Z Vertex 2 {m}
  8, 0, 0,                                !- X,Y,Z Vertex 3 {m}
  8, 0, 2.7;                              !- X,Y,Z Vertex 4 {m}

OS:Surface,
  {e77465b4-58a9-427f-9cc1-e2c0c21c8358}, !- Handle
  ZONE SURFACE EAST,                      !- Name
  Wall,                                   !- Surface Type
  ,                                       !- Construction Name
  {03ece817-ea5b-4279-bc8a-c6caf308a727}, !- Space Name
  Outdoors,                               !- Outside Boundary Condition
  ,                                       !- Outside Boundary Condition Object
  SunExposed,                             !- Sun Exposure
  WindExposed,                            !- Wind Exposure
  0.5,                                    !- View Factor to Ground
  ,                                       !- Number of Vertices
  8, 0, 2.7,                              !- X,Y,Z Vertex 1 {m}
  8, 0, 0,                                !- X,Y,Z Vertex 2 {m}
  8, 6, 0,                                !- X,Y,Z Vertex 3 {m}
  8, 6, 2.7;                              !- X,Y,Z Vertex 4 {m}

OS:Surface,
  {491e5935-0c19-40fe-bccf-b6bb399bdb14}, !- Handle
  ZONE SURFACE ROOF,                      !- Name
  RoofCeiling,                            !- Surface Type