
OS:Version,
  {9f470c8f-6006-41ff-a744-b0d2e2e04b9e}, !- Handle
  1.13.1;                                 !- Version Identifier

OS:Site,
  {bc874655-a927-4872-a278-1347186bb1d9}, !- Handle
  NEW_ORLEANS_LA_USA,                     !- Name
  29.98,                                  !- Latitude {deg}
  -90.25,                                 !- Longitude {deg}
  -6,                                     !- Time Zone {hr}
  3,                                      !- Elevation {m}
  Country;                                !- Terrain

OS:YearDescription,
  {9116ce1c-534f-4b3a-9d15-2bb1a805c7e1}, !- Handle
  2008,                                   !- Calendar Year
  ,                                       !- Day of Week for Start Day
  ;                                       !- Is Leap Year

OS:ClimateZones,
  {dd268d6b-2da7-4abc-b8ad-35d0988c56cd}, !- Handle
  ,                                       !- Active Institution
  ,                                       !- Active Year
  ASHRAE,                                 !- Climate Zone Institution Name 1
  ANSI/ASHRAE Standard 169,               !- Climate Zone Document Name 1
  2006,                                   !- Climate Zone Document Year 1
  ,                                       !- Climate Zone Value 1
  CEC,                                    !- Climate Zone Institution Name 2
  California Climate Zone Descriptions,   !- Climate Zone Document Name 2
  1995,                                   !- Climate Zone Document Year 2
  ;                                       !- Climate Zone Value 2

OS:Facility,
  {01cd2b0a-8ee0-4ab6-a2fb-9f6c7d21094d}; !- Handle

OS:SimulationControl,
  {30e9303f-ed23-491c-b310-8ef7274e967f}, !- Handle
  ,                                       !- Do Zone Sizing Calculation
  ,                                       !- Do System Sizing Calculation
  ,                                       !- Do Plant Sizing Calculation
  No,                                     !- Run Simulation for Sizing Periods
  ,                                       !- Run Simulation for Weather File Run Periods
  ,                                       !- Loads Convergence Tolerance Value
  ,                                       !- Temperature Convergence Tolerance Value {deltaC}
  FullInteriorAndExterior,                !- Solar Distribution
  ,                                       !- Maximum Number of Warmup Days
  6;                                      !- Minimum Number of Warmup Days

OS:Sizing:Parameters,
  {c983733e-8a2d-428d-8380-a9c380f3d01c}, !- Handle
  1.25,                                   !- Heating Sizing Factor
  1.15;                                   !- Cooling Sizing Factor

OS:Timestep,
  {7a470c9d-4813-47b4-b276-325100b7b62f}, !- Handle
  4;                                      !- Number of Timesteps per Hour

OS:ShadowCalculation,
  {21696cf9-7a12-43bf-ac4c-50d1be8bf2fd}, !- Handle
  20,                                     !- Calculation Frequency
  15000;                                  !- Maximum Figures in Shadow Overlap Calculations

OS:HeatBalanceAlgorithm,
  {09f4a614-27ba-43a9-a0ac-4379e03c44e8}, !- Handle
  ConductionTransferFunction,             !- Algorithm
  200;                                    !- Surface Temperature Upper Limit {C}

OS:RunPeriod,
  {322b0b21-e55e-459f-b4f2-853d2d37fd9a}, !- Handle
  Run Period 1,                           !- Name
  1,                                      !- Begin Month
  1,                                      !- Begin Day of Month
  12,                                     !- End Month
  31,                                     !- End Day of Month
  ,                                       !- Use Weather File Holidays and Special Days
  ,                                       !- Use Weather File Daylight Saving Period
  ,                                       !- Apply Weekend Holiday Rule
  ,                                       !- Use Weather File Rain Indicators
  ,                                       !- Use Weather File Snow Indicators
  ;                                       !- Number of Times Runperiod to be Repeated

OS:LifeCycleCost:Parameters,
  {a8ce31c8-7533-4ad7-aa7a-5380b4197455}, !- Handle
  ,                                       !- Analysis Type
  ,                                       !- Discounting Convention
  ,                                       !- Inflation Approach
  ,                                       !- Real Discount Rate
  ,                                       !- Nominal Discount Rate
  ,                                       !- Inflation
  ,                                       !- Base Date Month
  ,                                       !- Base Date Year
  ,                                       !- Service Date Month
  ,                                       !- Service Date Year
  ;                                       !- Length of Study Period in Years

OS:SurfaceConvectionAlgorithm:Inside,
  {420350c6-5af6-43ee-bc8c-6ef8bb402f80}, !- Handle
  TARP;                                   !- Algorithm

OS:SurfaceConvectionAlgorithm:Outside,
  {1dbcb3fd-20a7-4288-87f9-f405ec12f008}, !- Handle
  TARP;                                   !- Algorithm

OS:WeatherFile,
  {9d6b4c64-229c-4fa1-908b-d05fb65fd7b1}, !- Handle
  NEW_ORLEANS,                            !- City
  LA,                                     !- State Province Region
  USA,                                    !- Country
  TMY2-12916,                             !- Data Source
  722315,                                 !- WMO Number
  29.98,                                  !- Latitude {deg}
  -90.25,                                 !- Longitude {deg}
  -6,                                     !- Time Zone {hr}
  3,                                      !- Elevation {m}
  file:///Users/dgoldwas/Documents/GitHub/OSEP_BESTTEST/measures/bestest_space_cooling_equipment_performance_tests/resources/CE300TM2.epw, !- Url
  96FC79DF;                               !- Checksum

OS:SizingPeriod:DesignDay,
  {13e4ac2b-4044-4eb2-9c4d-9fa842621f0a}, !- Handle
  Sizing Period Design Day 1,             !- Name
  23,                                     !- Maximum Dry-Bulb Temperature {C}
  0,                                      !- Daily Dry-Bulb Temperature Range {deltaC}
  23,                                     !- Humidity Indicating Conditions at Maximum Dry-Bulb
  31000,                                  !- Barometric Pressure {Pa}
  0,                                      !- Wind Speed {m/s}
  0,                                      !- Wind Direction {deg}
  0,                                      !- Sky Clearness
  ,                                       !- Rain Indicator
  0,                                      !- Snow Indicator
  1,                                      !- Day of Month
  1,                                      !- Month
  SummerDesignDay,                        !- Day Type
  0,                                      !- Daylight Saving Time Indicator
  WetBulb,                                !- Humidity Indicating Type
  ,                                       !- Humidity Indicating Day Schedule Name
  DefaultMultipliers,                     !- Dry-Bulb Temperature Range Modifier Type
  ,                                       !- Dry-Bulb Temperature Range Modifier Schedule Name
  AshraeClearSky;                         !- Solar Model Indicator

OS:SizingPeriod:DesignDay,
  {ddf2efca-ba93-48c2-b2f9-e873ebd7a576}, !- Handle
  Sizing Period Design Day 2,             !- Name
  23,                                     !- Maximum Dry-Bulb Temperature {C}
  0,                                      !- Daily Dry-Bulb Temperature Range {deltaC}
  23,                                     !- Humidity Indicating Conditions at Maximum Dry-Bulb
  31000,                                  !- Barometric Pressure {Pa}
  0,                                      !- Wind Speed {m/s}
  0,                                      !- Wind Direction {deg}
  0,                                      !- Sky Clearness
  ,                                       !- Rain Indicator
  0,                                      !- Snow Indicator
  1,                                      !- Day of Month
  1,                                      !- Month
  WinterDesignDay,                        !- Day Type
  0,                                      !- Daylight Saving Time Indicator
  WetBulb,                                !- Humidity Indicating Type
  ,                                       !- Humidity Indicating Day Schedule Name
  DefaultMultipliers,                     !- Dry-Bulb Temperature Range Modifier Type
  ,                                       !- Dry-Bulb Temperature Range Modifier Schedule Name
  AshraeClearSky;                         !- Solar Model Indicator

OS:Building,
  {c4b2685c-0c02-4f50-b3af-ce2ca785bce1}, !- Handle
  BESTEST Case CE300 - Base Case 15% OA,  !- Name
  ,                                       !- Building Sector Type
  0,                                      !- North Axis {deg}
  ,                                       !- Nominal Floor to Floor Height {m}
  ,                                       !- Space Type Name
  ,                                       !- Default Construction Set Name
  ,                                       !- Default Schedule Set Name
  ,                                       !- Standards Number of Stories
  ,                                       !- Standards Number of Above Ground Stories
  ,                                       !- Standards Building Type
  ,                                       !- Standards Number of Living Units
  ,                                       !- Relocatable
  ;                                       !- Nominal Floor to Ceiling Height {m}

OS:ThermalZone,
  {9ac3fa85-38d9-4389-9851-e596a0a701f0}, !- Handle
  ZONE ONE,                               !- Name
  1,                                      !- Multiplier
  3,                                      !- Ceiling Height {m}
  588,                                    !- Volume {m3}
  ,                                       !- Floor Area {m2}
  ,                                       !- Zone Inside Convection Algorithm
  ,                                       !- Zone Outside Convection Algorithm
  ,                                       !- Zone Conditioning Equipment List Name
  {07263ef5-c4d4-4969-b87f-a89fd083dd28}, !- Zone Air Inlet Port List
  {79fa3132-f202-4b94-b2f6-1d9e0b5b1d6a}, !- Zone Air Exhaust Port List
  {b1dd66d3-dc99-48a6-b7c9-858fb0e477f0}, !- Zone Air Node Name
  {6bfb272e-c4d5-4d26-bcd1-78fc82cb9c96}, !- Zone Return Air Node Name
  ,                                       !- Primary Daylighting Control Name
  ,                                       !- Fraction of Zone Controlled by Primary Daylighting Control
  ,                                       !- Secondary Daylighting Control Name
  ,                                       !- Fraction of Zone Controlled by Secondary Daylighting Control
  ,                                       !- Illuminance Map Name
  {f8814671-52b7-4821-9a3e-f319e6065e0b}, !- Group Rendering Name
  {120cc6b8-9e9c-405e-a73f-34a0e703c81d}, !- Thermostat Name
  No,                                     !- Use Ideal Air Loads
  ;                                       !- Humidistat Name

OS:Rendering:Color,
  {f8814671-52b7-4821-9a3e-f319e6065e0b}, !- Handle
  Rendering Color 2,                      !- Name
  127,                                    !- Rendering Red Value
  255,                                    !- Rendering Green Value
  212;                                    !- Rendering Blue Value

OS:Node,
  {16208def-e16e-474e-8436-ecf48a2c119a}, !- Handle
  Node 1,                                 !- Name
  {b1dd66d3-dc99-48a6-b7c9-858fb0e477f0}, !- Inlet Port
  ;                                       !- Outlet Port

OS:Connection,
  {b1dd66d3-dc99-48a6-b7c9-858fb0e477f0}, !- Handle
  {5c531628-5530-4e82-940a-d9bbec67c576}, !- Name
  {9ac3fa85-38d9-4389-9851-e596a0a701f0}, !- Source Object
  11,                                     !- Outlet Port
  {16208def-e16e-474e-8436-ecf48a2c119a}, !- Target Object
  2;                                      !- Inlet Port

OS:PortList,
  {07263ef5-c4d4-4969-b87f-a89fd083dd28}, !- Handle
  Port List 1,                            !- Name
  {9ac3fa85-38d9-4389-9851-e596a0a701f0}, !- HVAC Component
  {a0175ede-0c8a-4078-93a3-08ef470acf91}; !- Port 1

OS:PortList,
  {79fa3132-f202-4b94-b2f6-1d9e0b5b1d6a}, !- Handle
  Port List 2,                            !- Name
  {9ac3fa85-38d9-4389-9851-e596a0a701f0}; !- HVAC Component

OS:Sizing:Zone,
  {09c1f697-b59a-4c11-aef9-4b5c338e20c3}, !- Handle
  {9ac3fa85-38d9-4389-9851-e596a0a701f0}, !- Zone or ZoneList Name
  SupplyAirTemperature,                   !- Zone Cooling Design Supply Air Temperature Input Method
  14,                                     !- Zone Cooling Design Supply Air Temperature {C}
  11.11,                                  !- Zone Cooling Design Supply Air Temperature Difference {deltaC}
  SupplyAirTemperature,                   !- Zone Heating Design Supply Air Temperature Input Method
  40,                                     !- Zone Heating Design Supply Air Temperature {C}
  11.11,                                  !- Zone Heating Design Supply Air Temperature Difference {deltaC}
  0.0085,                                 !- Zone Cooling Design Supply Air Humidity Ratio {kg-H2O/kg-air}
  0.008,                                  !- Zone Heating Design Supply Air Humidity Ratio {kg-H2O/kg-air}
  ,                                       !- Zone Heating Sizing Factor
  ,                                       !- Zone Cooling Sizing Factor
  DesignDay,                              !- Cooling Design Air Flow Method
  ,                                       !- Cooling Design Air Flow Rate {m3/s}
  ,                                       !- Cooling Minimum Air Flow per Zone Floor Area {m3/s-m2}
  ,                                       !- Cooling Minimum Air Flow {m3/s}
  ,                                       !- Cooling Minimum Air Flow Fraction
  DesignDay,                              !- Heating Design Air Flow Method
  ,                                       !- Heating Design Air Flow Rate {m3/s}
  ,                                       !- Heating Maximum Air Flow per Zone Floor Area {m3/s-m2}
  ,                                       !- Heating Maximum Air Flow {m3/s}
  ,                                       !- Heating Maximum Air Flow Fraction
  ,                                       !- Design Zone Air Distribution Effectiveness in Cooling Mode
  ,                                       !- Design Zone Air Distribution Effectiveness in Heating Mode
  No,                                     !- Account for Dedicated Outdoor Air System
  NeutralSupplyAir,                       !- Dedicated Outdoor Air System Control Strategy
  autosize,                               !- Dedicated Outdoor Air Low Setpoint Temperature for Design {C}
  autosize;                               !- Dedicated Outdoor Air High Setpoint Temperature for Design {C}

OS:ZoneHVAC:EquipmentList,
  {36cdba8c-f2c7-4b8e-a72d-ec7a5c8e41c9}, !- Handle
  Zone HVAC Equipment List 1,             !- Name
  {9ac3fa85-38d9-4389-9851-e596a0a701f0}, !- Thermal Zone
  {b76b208b-ee0a-4a8f-bccc-faec9790d8ce}, !- Zone Equipment 1
  1,                                      !- Zone Equipment Cooling Sequence 1
  1;                                      !- Zone Equipment Heating or No-Load Sequence 1

OS:Space,
  {84b1fe1c-8de4-49b9-a93f-3c0cfa034c7a}, !- Handle
  ZONE ONE Space,                         !- Name
  ,                                       !- Space Type Name
  ,                                       !- Default Construction Set Name
  ,                                       !- Default Schedule Set Name
  0,                                      !- Direction of Relative North {deg}
  0,                                      !- X Origin {m}
  0,                                      !- Y Origin {m}
  0,                                      !- Z Origin {m}
  ,                                       !- Building Story Name
  {9ac3fa85-38d9-4389-9851-e596a0a701f0}, !- Thermal Zone Name
  ,                                       !- Part of Total Floor Area
  {8ffd3893-fcd9-4cc6-994e-c5c71c0a448d}; !- Design Specification Outdoor Air Object Name

OS:Surface,
  {0888f16d-b302-4683-8944-b08af35aaeb3}, !- Handle
  ZONE SURFACE FLOOR,                     !- Name
  Floor,                                  !- Surface Type
  {b230f5ee-4967-4972-989d-e4ead3e21938}, !- Construction Name
  {84b1fe1c-8de4-49b9-a93f-3c0cfa034c7a}, !- Space Name
  Outdoors,                               !- Outside Boundary Condition
  ,                                       !- Outside Boundary Condition Object
  SunExposed,                             !- Sun Exposure
  WindExposed,                            !- Wind Exposure
  0,                                      !- View Factor to Ground
  ,                                       !- Number of Vertices
  14, 14, 0,                              !- X,Y,Z Vertex 1 {m}
  14, 0, 0,                               !- X,Y,Z Vertex 2 {m}
  0, 0, 0,                                !- X,Y,Z Vertex 3 {m}
  0, 14, 0;                               !- X,Y,Z Vertex 4 {m}

OS:Construction,
  {b230f5ee-4967-4972-989d-e4ead3e21938}, !- Handle
  LTWALL,                                 !- Name
  {e229a512-1870-49cb-8c4a-4c5aa8adbe0d}, !- Surface Rendering Name
  {236f9e26-3030-4828-9352-0b286697d363}, !- Layer 1
  {47446489-fabf-4fa9-adf7-5d7637b24e4a}; !- Layer 2

OS:Rendering:Color,
  {e229a512-1870-49cb-8c4a-4c5aa8adbe0d}, !- Handle
  Rendering Color 1,                      !- Name
  199,                                    !- Rendering Red Value
  21,                                     !- Rendering Green Value
  133;                                    !- Rendering Blue Value

OS:Material:NoMass,
  {236f9e26-3030-4828-9352-0b286697d363}, !- Handle
  INSULATION-EXT,                         !- Name
  VerySmooth,                             !- Roughness
  162.5,                                  !- Thermal Resistance {m2-K/W}
  0.9,                                    !- Thermal Absorptance
  0.1,                                    !- Solar Absorptance
  0.1;                                    !- Visible Absorptance

OS:Material:NoMass,
  {47446489-fabf-4fa9-adf7-5d7637b24e4a}, !- Handle
  INSULATION-INT,                         !- Name
  VerySmooth,                             !- Roughness
  162.5,                                  !- Thermal Resistance {m2-K/W}
  0.9,                                    !- Thermal Absorptance
  0.6,                                    !- Solar Absorptance
  0.6;                                    !- Visible Absorptance

OS:Surface,
  {1ec279d3-831e-4001-b005-9b272c306c20}, !- Handle
  ZONE SURFACE NORTH,                     !- Name
  Wall,                                   !- Surface Type
  {b230f5ee-4967-4972-989d-e4ead3e21938}, !- Construction Name
  {84b1fe1c-8de4-49b9-a93f-3c0cfa034c7a}, !- Space Name
  Outdoors,                               !- Outside Boundary Condition
  ,                                       !- Outside Boundary Condition Object
  SunExposed,                             !- Sun Exposure
  WindExposed,                            !- Wind Exposure
  0.5,                                    !- View Factor to Ground
  ,                                       !- Number of Vertices
  14, 14, 3,                              !- X,Y,Z Vertex 1 {m}
  14, 14, 0,                              !- X,Y,Z Vertex 2 {m}
  0, 14, 0,                               !- X,Y,Z Vertex 3 {m}
  0, 14, 3;                               !- X,Y,Z Vertex 4 {m}

OS:Surface,
  {c78f7b39-a10e-40d2-a06b-d1688d0826c4}, !- Handle
  ZONE SURFACE EAST,                      !- Name
  Wall,                                   !- Surface Type
  {b230f5ee-4967-4972-989d-e4ead3e21938}, !- Construction Name
  {84b1fe1c-8de4-49b9-a93f-3c0cfa034c7a}, !- Space Name
  Outdoors,                               !- Outside Boundary Condition
  ,                                       !- Outside Boundary Condition Object
  SunExposed,                             !- Sun Exposure
  WindExposed,                            !- Wind Exposure
  0.5,                                    !- View Factor to Ground
  ,                                       !- Number of Vertices
  14, 0, 3,                               !- X,Y,Z Vertex 1 {m}
  14, 0, 0,                               !- X,Y,Z Vertex 2 {m}
  14, 14, 0,                              !- X,Y,Z Vertex 3 {m}
  14, 14, 3;                              !- X,Y,Z Vertex 4 {m}

OS:Surface,
  {c905d858-1947-4480-8234-c398ddbea1f3}, !- Handle
  ZONE SURFACE WEST,                      !- Name
  Wall,                                   !- Surface Type
  {b230f5ee-4967-4972-989d-e4ead3e21938}, !- Construction Name
  {84b1fe1c-8de4-49b9-a93f-3c0cfa034c7a}, !- Space Name
  Outdoors,                               !- Outside Boundary Condition
  ,                                       !- Outside Boundary Condition Object
  SunExposed,                             !- Sun Exposure
  WindExposed,                            !- Wind Exposure
  0.5,                                    !- View Factor to Ground
  ,                                       !- Number of Vertices
  0, 14, 3,                               !- X,Y,Z Vertex 1 {m}
  0, 14, 0,                               !- X,Y,Z Vertex 2 {m}
  0, 0, 0,                                !- X,Y,Z Vertex 3 {m}
  0, 0, 3;                                !- X,Y,Z Vertex 4 {m}

OS:Surface,
  {22e7831c-668a-4eed-9e89-7e14e528af1e}, !- Handle
  ZONE SURFACE SOUTH,                     !- Name
  Wall,                                   !- Surface Type
  {b230f5ee-4967-4972-989d-e4ead3e21938}, !- Construction Name
  {84b1fe1c-8de4-49b9-a93f-3c0cfa034c7a}, !- Space Name
  Outdoors,                               !- Outside Boundary Condition
  ,                                       !- Outside Boundary Condition Object
  SunExposed,                             !- Sun Exposure
  WindExposed,                            !- Wind Exposure
  0.5,                                    !- View Factor to Ground
  ,                                       !- Number of Vertices
  0, 0, 3,                                !- X,Y,Z Vertex 1 {m}
  0, 0, 0,                                !- X,Y,Z Vertex 2 {m}
  14, 0, 0,                               !- X,Y,Z Vertex 3 {m}
  14, 0, 3;                               !- X,Y,Z Vertex 4 {m}

OS:Surface,
  {9088e67c-80d7-4be6-b317-46e0eb71febe}, !- Handle
  ZONE SURFACE ROOF,                      !- Name
  RoofCeiling,                            !- Surface Type
  {b230f5ee-4967-4972-989d-e4ead3e21938}, !- Construction Name
  {84b1fe1c-8de4-49b9-a93f-3c0cfa034c7a}, !- Space Name
  Outdoors,                               !- Outside Boundary Condition
  ,                                       !- Outside Boundary Condition Object
  SunExposed,                             !- Sun Exposure
  WindExposed,                            !- Wind Exposure
  0,                                      !- View Factor to Ground
  ,                                       !- Number of Vertices
  14, 0, 3,                               !- X,Y,Z Vertex 1 {m}
  14, 14, 3,                              !- X,Y,Z Vertex 2 {m}
  0, 14, 3,                               !- X,Y,Z Vertex 3 {m}
  0, 0, 3;                                !- X,Y,Z Vertex 4 {m}

OS:OtherEquipment,
  {7b464798-81f3-4383-97a5-58765b7198da}, !- Handle
  CE_sens_mid_inst,                       !- Name
  {300d9038-b3ca-40c5-bbfb-2e485a0f7c9f}, !- Other Equipment Definition Name
  {84b1fe1c-8de4-49b9-a93f-3c0cfa034c7a}, !- Space or SpaceType Name
  {070bdadf-ebcb-4e8d-8859-5169d5e6f873}; !- Schedule Name

OS:OtherEquipment:Definition,
  {300d9038-b3ca-40c5-bbfb-2e485a0f7c9f}, !- Handle
  CE_sens_mid,                            !- Name
  EquipmentLevel,                         !- Design Level Calculation Method
  18758,                                  !- Design Level {W}
  ,                                       !- Watts per Space Floor Area {W/m2}
  ;                                       !- Watts per Person {W/Person}

OS:Schedule:Ruleset,
  {070bdadf-ebcb-4e8d-8859-5169d5e6f873}, !- Handle
  CE300_sens_mid,                         !- Name
  {6322cb6a-7047-4f0f-9efd-5d6f2b7aadfa}, !- Schedule Type Limits Name
  {dd2c9ab8-06fb-4a4e-ad4a-854e8ca55475}; !- Default Day Schedule Name

OS:Schedule:Day,
  {dd2c9ab8-06fb-4a4e-ad4a-854e8ca55475}, !- Handle
  Schedule Day 7,                         !- Name
  {6322cb6a-7047-4f0f-9efd-5d6f2b7aadfa}, !- Schedule Type Limits Name
  ,                                       !- Interpolate to Timestep
  24,                                     !- Hour 1
  0,                                      !- Minute 1
  0.15625;                                !- Value Until Time 1

OS:Schedule:Rule,
  {8d119419-d61b-4812-a756-76240216ecf2}, !- Handle
  Schedule Rule 5,                        !- Name
  {070bdadf-ebcb-4e8d-8859-5169d5e6f873}, !- Schedule Ruleset Name
  0,                                      !- Rule Order
  {4a619bc9-0144-4031-ad4b-b5b02bd0c683}, !- Day Schedule Name
  Yes,                                    !- Apply Sunday
  Yes,                                    !- Apply Monday
  Yes,                                    !- Apply Tuesday
  Yes,                                    !- Apply Wednesday
  Yes,                                    !- Apply Thursday
  Yes,                                    !- Apply Friday
  Yes,                                    !- Apply Saturday
  ,                                       !- Apply Holiday
  DateRange,                              !- Date Specification Type
  10,                                     !- Start Month
  19,                                     !- Start Day
  11,                                     !- End Month
  5;                                      !- End Day

OS:Schedule:Rule,
  {0fa58d8c-f606-4bb2-a801-dc0fd6a80c4e}, !- Handle
  Schedule Rule 4,                        !- Name
  {070bdadf-ebcb-4e8d-8859-5169d5e6f873}, !- Schedule Ruleset Name
  1,                                      !- Rule Order
  {c6aa3f93-0de6-4701-935b-72286ba76203}, !- Day Schedule Name
  Yes,                                    !- Apply Sunday
  Yes,                                    !- Apply Monday
  Yes,                                    !- Apply Tuesday
  Yes,                                    !- Apply Wednesday
  Yes,                                    !- Apply Thursday
  Yes,                                    !- Apply Friday
  Yes,                                    !- Apply Saturday
  ,                                       !- Apply Holiday
  DateRange,                              !- Date Specification Type
  10,                                     !- Start Month
  13,                                     !- Start Day
  10,                                     !- End Month
  18;                                     !- End Day

OS:Schedule:Rule,
  {603c9c60-9393-40da-ae5b-d876d12c9086}, !- Handle
  Schedule Rule 3,                        !- Name
  {070bdadf-ebcb-4e8d-8859-5169d5e6f873}, !- Schedule Ruleset Name
  2,                                      !- Rule Order
  {abfbb64c-9394-4fac-bf35-34503d2f3130}, !- Day Schedule Name
  Yes,                                    !- Apply Sunday
  Yes,                                    !- Apply Monday
  Yes,                                    !- Apply Tuesday
  Yes,                                    !- Apply Wednesday
  Yes,                                    !- Apply Thursday
  Yes,                                    !- Apply Friday
  Yes,                                    !- Apply Saturday
  ,                                       !- Apply Holiday
  DateRange,                              !- Date Specification Type
  4,                                      !- Start Month
  21,                                     !- Start Day
  10,                                     !- End Month
  12;                                     !- End Day

OS:Schedule:Rule,
  {74fdebbf-2aef-4e1b-9425-7ca7d923e6d1}, !- Handle
  Schedule Rule 2,                        !- Name
  {070bdadf-ebcb-4e8d-8859-5169d5e6f873}, !- Schedule Ruleset Name
  3,                                      !- Rule Order
  {dabac024-1bfb-4aba-9955-05bf5d888447}, !- Day Schedule Name
  Yes,                                    !- Apply Sunday
  Yes,                                    !- Apply Monday
  Yes,                                    !- Apply Tuesday
  Yes,                                    !- Apply Wednesday
  Yes,                                    !- Apply Thursday
  Yes,                                    !- Apply Friday
  Yes,                                    !- Apply Saturday
  ,                                       !- Apply Holiday
  DateRange,                              !- Date Specification Type
  4,                                      !- Start Month
  12,                                     !- Start Day
  4,                                      !- End Month
  20;                                     !- End Day

OS:Schedule:Rule,
  {836b1975-209d-460c-8819-dc325e13362c}, !- Handle
  Schedule Rule 1,                        !- Name
  {070bdadf-ebcb-4e8d-8859-5169d5e6f873}, !- Schedule Ruleset Name
  4,                                      !- Rule Order
  {735ee73b-8162-4dd5-aaf9-9c76418acf2b}, !- Day Schedule Name
  Yes,                                    !- Apply Sunday
  Yes,                                    !- Apply Monday
  Yes,                                    !- Apply Tuesday
  Yes,                                    !- Apply Wednesday
  Yes,                                    !- Apply Thursday