
OS:Version,
  {ebe9b1b5-a171-400c-820f-a89f65b4d3f6}, !- Handle
  1.12.1;                                 !- Version Identifier

OS:Site,
  {bc874655-a927-4872-a278-1347186bb1d9}, !- Handle
  MIAMI_FL_USA,                           !- Name
  25.8,                                   !- Latitude {deg}
  -80.27,                                 !- Longitude {deg}
  -5,                                     !- Time Zone {hr}
  2,                                      !- Elevation {m}
  Country;                                !- Terrain

OS:YearDescription,
  {9116ce1c-534f-4b3a-9d15-2bb1a805c7e1}, !- Handle
  ,                                       !- Calendar Year
  ;                                       !- Day of Week for Start Day

OS:ClimateZones,
  {dd268d6b-2da7-4abc-b8ad-35d0988c56cd}, !- Handle
  ,                                       !- Active Institution
  ,                                       !- Active Year
  ASHRAE,                                 !- Climate Zone Institution Name 1
  ANSI/ASHRAE Standard 169,               !- Climate Zone Document Name 1
  2006,                                   !- Climate Zone Document Year 1
  ,                                       !- Climate Zone Value 1
  CEC,                                    !- Climate Zone Institution Name 2
  California Climate Zone Descriptions,   !- Climate Zone Document Name 2
  1995,                                   !- Climate Zone Document Year 2
  ;                                       !- Climate Zone Value 2

OS:Facility,
  {01cd2b0a-8ee0-4ab6-a2fb-9f6c7d21094d}; !- Handle

OS:SimulationControl,
  {30e9303f-ed23-491c-b310-8ef7274e967f}, !- Handle
  ,                                       !- Do Zone Sizing Calculation
  ,                                       !- Do System Sizing Calculation
  ,                                       !- Do Plant Sizing Calculation
  No,                                     !- Run Simulation for Sizing Periods
  ,                                       !- Run Simulation for Weather File Run Periods
  ,                                       !- Loads Convergence Tolerance Value
  ,                                       !- Temperature Convergence Tolerance Value {deltaC}
  FullInteriorAndExterior,                !- Solar Distribution
  ,                                       !- Maximum Number of Warmup Days
  6;                                      !- Minimum Number of Warmup Days

OS:Sizing:Parameters,
  {c983733e-8a2d-428d-8380-a9c380f3d01c}, !- Handle
  1.25,                                   !- Heating Sizing Factor
  1.15;                                   !- Cooling Sizing Factor

OS:Timestep,
  {7a470c9d-4813-47b4-b276-325100b7b62f}, !- Handle
  6;                                      !- Number of Timesteps per Hour

OS:ShadowCalculation,
  {21696cf9-7a12-43bf-ac4c-50d1be8bf2fd}, !- Handle
  20,                                     !- Calculation Frequency
  15000;                                  !- Maximum Figures in Shadow Overlap Calculations

OS:HeatBalanceAlgorithm,
  {09f4a614-27ba-43a9-a0ac-4379e03c44e8}, !- Handle
  ConductionTransferFunction,             !- Algorithm
  200;                                    !- Surface Temperature Upper Limit {C}

OS:RunPeriod,
  {322b0b21-e55e-459f-b4f2-853d2d37fd9a}, !- Handle
  Run Period 1,                           !- Name
  1,                                      !- Begin Month
  1,                                      !- Begin Day of Month
  12,                                     !- End Month
  31,                                     !- End Day of Month
  ,                                       !- Use Weather File Holidays and Special Days
  ,                                       !- Use Weather File Daylight Saving Period
  ,                                       !- Apply Weekend Holiday Rule
  ,                                       !- Use Weather File Rain Indicators
  ,                                       !- Use Weather File Snow Indicators
  ;                                       !- Number of Times Runperiod to be Repeated

OS:LifeCycleCost:Parameters,
  {a8ce31c8-7533-4ad7-aa7a-5380b4197455}, !- Handle
  ,                                       !- Analysis Type
  ,                                       !- Discounting Convention
  ,                                       !- Inflation Approach
  ,                                       !- Real Discount Rate
  ,                                       !- Nominal Discount Rate
  ,                                       !- Inflation
  ,                                       !- Base Date Month
  ,                                       !- Base Date Year
  ,                                       !- Service Date Month
  ,                                       !- Service Date Year
  ;                                       !- Length of Study Period in Years

OS:SurfaceConvectionAlgorithm:Inside,
  {95891c3b-a463-43f4-a5cf-5cbf5fc14be6}, !- Handle
  TARP;                                   !- Algorithm

OS:SurfaceConvectionAlgorithm:Outside,
  {31e01490-6394-4378-b3bf-84208aa04127}, !- Handle
  TARP;                                   !- Algorithm

OS:WeatherFile,
  {85d4c5cb-34d6-473c-9144-6e90fb2d4f54}, !- Handle
  MIAMI,                                  !- City
  FL,                                     !- State Province Region
  USA,                                    !- Country
  TMY2-12839,                             !- Data Source
  722020,                                 !- WMO Number
  25.8,                                   !- Latitude {deg}
  -80.27,                                 !- Longitude {deg}
  -5,                                     !- Time Zone {hr}
  2,                                      !- Elevation {m}
  file:///Users/dgoldwas/Documents/GitHub/OSEP_BESTTEST/measures/bestest_space_cooling_equipment_performance_tests/resources/CE100ATM2.epw, !- Url
  5F480EBD;                               !- Checksum

OS:SizingPeriod:DesignDay,
  {0de8c159-d969-43ef-b49f-28b14e128b3c}, !- Handle
  Sizing Period Design Day 1,             !- Name
  23,                                     !- Maximum Dry-Bulb Temperature {C}
  0,                                      !- Daily Dry-Bulb Temperature Range {deltaC}
  23,                                     !- Humidity Indicating Conditions at Maximum Dry-Bulb
  31000,                                  !- Barometric Pressure {Pa}
  0,                                      !- Wind Speed {m/s}
  0,                                      !- Wind Direction {deg}
  0,                                      !- Sky Clearness
  ,                                       !- Rain Indicator
  0,                                      !- Snow Indicator
  1,                                      !- Day of Month
  1,                                      !- Month
  SummerDesignDay,                        !- Day Type
  0,                                      !- Daylight Saving Time Indicator
  WetBulb,                                !- Humidity Indicating Type
  ,                                       !- Humidity Indicating Day Schedule Name
  DefaultMultipliers,                     !- Dry-Bulb Temperature Range Modifier Type
  ,                                       !- Dry-Bulb Temperature Range Modifier Schedule Name
  AshraeClearSky;                         !- Solar Model Indicator

OS:SizingPeriod:DesignDay,
  {6b8bc696-08a9-4a8a-9392-0d9ab71389f1}, !- Handle
  Sizing Period Design Day 2,             !- Name
  23,                                     !- Maximum Dry-Bulb Temperature {C}
  0,                                      !- Daily Dry-Bulb Temperature Range {deltaC}
  23,                                     !- Humidity Indicating Conditions at Maximum Dry-Bulb
  31000,                                  !- Barometric Pressure {Pa}
  0,                                      !- Wind Speed {m/s}
  0,                                      !- Wind Direction {deg}
  0,                                      !- Sky Clearness
  ,                                       !- Rain Indicator
  0,                                      !- Snow Indicator
  1,                                      !- Day of Month
  1,                                      !- Month
  WinterDesignDay,                        !- Day Type
  0,                                      !- Daylight Saving Time Indicator
  WetBulb,                                !- Humidity Indicating Type
  ,                                       !- Humidity Indicating Day Schedule Name
  DefaultMultipliers,                     !- Dry-Bulb Temperature Range Modifier Type
  ,                                       !- Dry-Bulb Temperature Range Modifier Schedule Name
  AshraeClearSky;                         !- Solar Model Indicator

OS:Building,
  {728f90fe-1963-4367-8f95-85e8bbd6dd9c}, !- Handle
  BESTEST Case CE100 - Base-Case Building and Mechanical System, !- Name
  ,                                       !- Building Sector Type
  0,                                      !- North Axis {deg}
  ,                                       !- Nominal Floor to Floor Height {m}
  ,                                       !- Space Type Name
  ,                                       !- Default Construction Set Name
  ;                                       !- Default Schedule Set Name

OS:ThermalZone,
  {b358b420-a497-4b9b-9c0d-cdd6a0aa594f}, !- Handle
  ZONE ONE,                               !- Name
  1,                                      !- Multiplier
  2.7,                                    !- Ceiling Height {m}
  129.6,                                  !- Volume {m3}
  ,                                       !- Floor Area {m2}
  ,                                       !- Zone Inside Convection Algorithm
  ,                                       !- Zone Outside Convection Algorithm
  ,                                       !- Zone Conditioning Equipment List Name
  {35b19427-1af9-4acb-b6ba-c1dd9ce6f155}, !- Zone Air Inlet Port List
  {a1c4ac71-e6b9-4d2d-84d7-7e30c8ccaed5}, !- Zone Air Exhaust Port List
  {023a4353-d49d-4d39-a392-e5d704ed1904}, !- Zone Air Node Name
  {59a9479c-1cc1-40fc-b410-b696f22d922a}, !- Zone Return Air Node Name
  ,                                       !- Primary Daylighting Control Name
  ,                                       !- Fraction of Zone Controlled by Primary Daylighting Control
  ,                                       !- Secondary Daylighting Control Name
  ,                                       !- Fraction of Zone Controlled by Secondary Daylighting Control
  ,                                       !- Illuminance Map Name
  ,                                       !- Group Rendering Name
  {c91b7e24-823e-42d7-9258-8439df71b92f}, !- Thermostat Name
  No,                                     !- Use Ideal Air Loads
  ;                                       !- Humidistat Name

OS:Node,
  {545dc130-95ed-4035-83f4-13fecc37cbc5}, !- Handle
  Node 1,                                 !- Name
  {023a4353-d49d-4d39-a392-e5d704ed1904}, !- Inlet Port
  ;                                       !- Outlet Port

OS:Connection,
  {023a4353-d49d-4d39-a392-e5d704ed1904}, !- Handle
  {60a368d0-5506-49c6-9dfb-b03e76a8a2c5}, !- Name
  {b358b420-a497-4b9b-9c0d-cdd6a0aa594f}, !- Source Object
  11,                                     !- Outlet Port
  {545dc130-95ed-4035-83f4-13fecc37cbc5}, !- Target Object
  2;                                      !- Inlet Port

OS:PortList,
  {35b19427-1af9-4acb-b6ba-c1dd9ce6f155}, !- Handle
  Port List 1,                            !- Name
  {b358b420-a497-4b9b-9c0d-cdd6a0aa594f}, !- HVAC Component
  {855c0763-8dfc-4731-af01-51983c9d2804}; !- Port 1

OS:PortList,
  {a1c4ac71-e6b9-4d2d-84d7-7e30c8ccaed5}, !- Handle
  Port List 2,                            !- Name
  {b358b420-a497-4b9b-9c0d-cdd6a0aa594f}; !- HVAC Component

OS:Sizing:Zone,
  {9ba3b984-25b3-4bf3-94fc-12fcdf3099ae}, !- Handle
  {b358b420-a497-4b9b-9c0d-cdd6a0aa594f}, !- Zone or ZoneList Name
  SupplyAirTemperature,                   !- Zone Cooling Design Supply Air Temperature Input Method
  14,                                     !- Zone Cooling Design Supply Air Temperature {C}
  11.11,                                  !- Zone Cooling Design Supply Air Temperature Difference {deltaC}
  SupplyAirTemperature,                   !- Zone Heating Design Supply Air Temperature Input Method
  40,                                     !- Zone Heating Design Supply Air Temperature {C}
  11.11,                                  !- Zone Heating Design Supply Air Temperature Difference {deltaC}
  0.0085,                                 !- Zone Cooling Design Supply Air Humidity Ratio {kg-H2O/kg-air}
  0.008,                                  !- Zone Heating Design Supply Air Humidity Ratio {kg-H2O/kg-air}
  ,                                       !- Zone Heating Sizing Factor
  ,                                       !- Zone Cooling Sizing Factor
  DesignDay,                              !- Cooling Design Air Flow Method
  ,                                       !- Cooling Design Air Flow Rate {m3/s}
  ,                                       !- Cooling Minimum Air Flow per Zone Floor Area {m3/s-m2}
  ,                                       !- Cooling Minimum Air Flow {m3/s}
  ,                                       !- Cooling Minimum Air Flow Fraction
  DesignDay,                              !- Heating Design Air Flow Method
  ,                                       !- Heating Design Air Flow Rate {m3/s}
  ,                                       !- Heating Maximum Air Flow per Zone Floor Area {m3/s-m2}
  ,                                       !- Heating Maximum Air Flow {m3/s}
  ,                                       !- Heating Maximum Air Flow Fraction
  ,                                       !- Design Zone Air Distribution Effectiveness in Cooling Mode
  ,                                       !- Design Zone Air Distribution Effectiveness in Heating Mode
  No,                                     !- Account for Dedicated Outdoor Air System
  NeutralSupplyAir,                       !- Dedicated Outdoor Air System Control Strategy
  autosize,                               !- Dedicated Outdoor Air Low Setpoint Temperature for Design {C}
  autosize;                               !- Dedicated Outdoor Air High Setpoint Temperature for Design {C}

OS:ZoneHVAC:EquipmentList,
  {16ae854f-865e-4bb3-84b3-e5e7fef92804}, !- Handle
  Zone HVAC Equipment List 1,             !- Name
  {b358b420-a497-4b9b-9c0d-cdd6a0aa594f}, !- Thermal Zone
  {63724424-d171-4be0-8ba1-d6e28b819b5a}, !- Zone Equipment 1
  1,                                      !- Zone Equipment Cooling Sequence 1
  1;                                      !- Zone Equipment Heating or No-Load Sequence 1

OS:Space,
  {703ca43d-4afe-4be3-8080-ec9c2da3a60f}, !- Handle
  ZONE ONE Space,                         !- Name
  ,                                       !- Space Type Name
  ,                                       !- Default Construction Set Name
  ,                                       !- Default Schedule Set Name
  0,                                      !- Direction of Relative North {deg}
  0,                                      !- X Origin {m}
  0,                                      !- Y Origin {m}
  0,                                      !- Z Origin {m}
  ,                                       !- Building Story Name
  {b358b420-a497-4b9b-9c0d-cdd6a0aa594f}; !- Thermal Zone Name

OS:Surface,
  {9f25e0f9-60a1-4bc7-8bcc-a3bc3092bc48}, !- Handle
  ZONE SURFACE FLOOR,                     !- Name
  Floor,                                  !- Surface Type
  {2f57a0d8-1a0d-4fb2-89eb-504569c97a66}, !- Construction Name
  {703ca43d-4afe-4be3-8080-ec9c2da3a60f}, !- Space Name
  Outdoors,                               !- Outside Boundary Condition
  ,                                       !- Outside Boundary Condition Object
  SunExposed,                             !- Sun Exposure
  WindExposed,                            !- Wind Exposure
  0,                                      !- View Factor to Ground
  ,                                       !- Number of Vertices
  8, 6, 0,                                !- X,Y,Z Vertex 1 {m}
  8, 0, 0,                                !- X,Y,Z Vertex 2 {m}
  0, 0, 0,                                !- X,Y,Z Vertex 3 {m}
  0, 6, 0;                                !- X,Y,Z Vertex 4 {m}

OS:Construction,
  {2f57a0d8-1a0d-4fb2-89eb-504569c97a66}, !- Handle
  LTWALL,                                 !- Name
  ,                                       !- Surface Rendering Name
  {db03093f-a5d7-48a2-94cc-be47a32c1adf}, !- Layer 1
  {a1e21b78-ef54-4743-afce-acbc30160214}; !- Layer 2

OS:Material:NoMass,
  {db03093f-a5d7-48a2-94cc-be47a32c1adf}, !- Handle
  INSULATION-EXT,                         !- Name
  VerySmooth,                             !- Roughness
  50,                                     !- Thermal Resistance {m2-K/W}
  0.9,                                    !- Thermal Absorptance
  0.1,                                    !- Solar Absorptance
  0.1;                                    !- Visible Absorptance

OS:Material:NoMass,
  {a1e21b78-ef54-4743-afce-acbc30160214}, !- Handle
  INSULATION-INT,                         !- Name
  VerySmooth,                             !- Roughness
  50,                                     !- Thermal Resistance {m2-K/W}
  0.9,                                    !- Thermal Absorptance
  0.6,                                    !- Solar Absorptance
  0.6;                                    !- Visible Absorptance

OS:Surface,
  {589ed3fb-3c4d-4287-97a6-77237ea14d15}, !- Handle
  ZONE SURFACE SOUTH,                     !- Name
  Wall,                                   !- Surface Type
  {2f57a0d8-1a0d-4fb2-89eb-504569c97a66}, !- Construction Name
  {703ca43d-4afe-4be3-8080-ec9c2da3a60f}, !- Space Name
  Outdoors,                               !- Outside Boundary Condition
  ,                                       !- Outside Boundary Condition Object
  SunExposed,                             !- Sun Exposure
  WindExposed,                            !- Wind Exposure
  0.5,                                    !- View Factor to Ground
  ,                                       !- Number of Vertices
  0, 0, 2.7,                              !- X,Y,Z Vertex 1 {m}
  0, 0, 0,                                !- X,Y,Z Vertex 2 {m}
  8, 0, 0,                                !- X,Y,Z Vertex 3 {m}
  8, 0, 2.7;                              !- X,Y,Z Vertex 4 {m}

OS:Surface,
  {16266a73-77cc-4df1-99a9-8d615c5e844a}, !- Handle
  ZONE SURFACE WEST,                      !- Name
  Wall,                                   !- Surface Type
  {2f57a0d8-1a0d-4fb2-89eb-504569c97a66}, !- Construction Name
  {703ca43d-4afe-4be3-8080-ec9c2da3a60f}, !- Space Name
  Outdoors,                               !- Outside Boundary Condition
  ,                                       !- Outside Boundary Condition Object
  SunExposed,                             !- Sun Exposure
  WindExposed,                            !- Wind Exposure
  0.5,                                    !- View Factor to Ground
  ,                                       !- Number of Vertices
  0, 6, 2.7,                              !- X,Y,Z Vertex 1 {m}
  0, 6, 0,                                !- X,Y,Z Vertex 2 {m}
  0, 0, 0,                                !- X,Y,Z Vertex 3 {m}
  0, 0, 2.7;                              !- X,Y,Z Vertex 4 {m}

OS:Surface,
  {fecf3be1-f8cb-42c5-8f6c-5b7d6459af27}, !- Handle
  ZONE SURFACE NORTH,                     !- Name
  Wall,                                   !- Surface Type
  {2f57a0d8-1a0d-4fb2-89eb-504569c97a66}, !- Construction Name
  {703ca43d-4afe-4be3-8080-ec9c2da3a60f}, !- Space Name
  Outdoors,                               !- Outside Boundary Condition
  ,                                       !- Outside Boundary Condition Object
  SunExposed,                             !- Sun Exposure
  WindExposed,                            !- Wind Exposure
  0.5,                                    !- View Factor to Ground
  ,                                       !- Number of Vertices
  8, 6, 2.7,                              !- X,Y,Z Vertex 1 {m}
  8, 6, 0,                                !- X,Y,Z Vertex 2 {m}
  0, 6, 0,                                !- X,Y,Z Vertex 3 {m}
  0, 6, 2.7;                              !- X,Y,Z Vertex 4 {m}

OS:Surface,
  {2214a6d4-0978-444b-a7d2-f1b89597ee1c}, !- Handle
  ZONE SURFACE ROOF,                      !- Name
  RoofCeiling,                            !- Surface Type
  {2f57a0d8-1a0d-4fb2-89eb-504569c97a66}, !- Construction Name
  {703ca43d-4afe-4be3-8080-ec9c2da3a60f}, !- Space Name
  Outdoors,                               !- Outside Boundary Condition
  ,                                       !- Outside Boundary Condition Object
  SunExposed,                             !- Sun Exposure
  WindExposed,                            !- Wind Exposure
  0,                                      !- View Factor to Ground
  ,                                       !- Number of Vertices
  8, 0, 2.7,                              !- X,Y,Z Vertex 1 {m}
  8, 6, 2.7,                              !- X,Y,Z Vertex 2 {m}
  0, 6, 2.7,                              !- X,Y,Z Vertex 3 {m}
  0, 0, 2.7;                              !- X,Y,Z Vertex 4 {m}

OS:Surface,
  {8cf9606d-b582-4d52-81a7-d227b3b91b47}, !- Handle
  ZONE SURFACE EAST,                      !- Name
  Wall,                                   !- Surface Type
  {2f57a0d8-1a0d-4fb2-89eb-504569c97a66}, !- Construction Name
  {703ca43d-4afe-4be3-8080-ec9c2da3a60f}, !- Space Name
  Outdoors,                               !- Outside Boundary Condition
  ,                                       !- Outside Boundary Condition Object
  SunExposed,                             !- Sun Exposure
  WindExposed,                            !- Wind Exposure
  0.5,                                    !- View Factor to Ground
  ,                                       !- Number of Vertices
  8, 0, 2.7,                              !- X,Y,Z Vertex 1 {m}
  8, 0, 0,                                !- X,Y,Z Vertex 2 {m}
  8, 6, 0,                                !- X,Y,Z Vertex 3 {m}
  8, 6, 2.7;                              !- X,Y,Z Vertex 4 {m}

OS:OtherEquipment,
  {ff875223-9eff-496e-bfaa-b591943e1608}, !- Handle
  CE_sens_generic_inst,                   !- Name
  {de9d79a9-bf74-474b-97e5-12dddff6423f}, !- Other Equipment Definition Name
  {703ca43d-4afe-4be3-8080-ec9c2da3a60f}, !- Space or SpaceType Name
  {c7ff40b3-3857-4106-bed0-7def6c71d84a}; !- Schedule Name

OS:OtherEquipment:Definition,
  {de9d79a9-bf74-474b-97e5-12dddff6423f}, !- Handle
  CE_sens_generic,                        !- Name
  EquipmentLevel,                         !- Design Level Calculation Method
  5400,                                   !- Design Level {W}
  ,                                       !- Watts per Space Floor Area {W/m2}
  ;                                       !- Watts per Person {W/Person}

OS:Schedule:Ruleset,
  {c7ff40b3-3857-4106-bed0-7def6c71d84a}, !- Handle
  Always On Ruleset Fractional,           !- Name
  {3e0ca4cc-5955-438d-a179-47e76ac27178}, !- Schedule Type Limits Name
  {7f3bd249-e943-4d15-91ce-b27e93288d99}; !- Default Day Schedule Name

OS:Schedule:Day,
  {7f3bd249-e943-4d15-91ce-b27e93288d99}, !- Handle
  Schedule Day 6,                         !- Name
  {3e0ca4cc-5955-438d-a179-47e76ac27178}, !- Schedule Type Limits Name
  ,                                       !- Interpolate to Timestep
  24,                                     !- Hour 1
  0,                                      !- Minute 1
  1;                                      !- Value Until Time 1

OS:ScheduleTypeLimits,
  {3e0ca4cc-5955-438d-a179-47e76ac27178}, !- Handle
  Fractional,                             !- Name
  0,                                      !- Lower Limit Value
  1,                                      !- Upper Limit Value
  Continuous;                             !- Numeric Type

OS:OtherEquipment,
  {711cceae-9591-43ab-8e5b-39c37ec7ed83}, !- Handle
  CE_lat_generic_inst,                    !- Name
  {682403db-87ae-41e0-9568-8c0aee318cad}, !- Other Equipment Definition Name
  {703ca43d-4afe-4be3-8080-ec9c2da3a60f}, !- Space or SpaceType Name
  {c7ff40b3-3857-4106-bed0-7def6c71d84a}; !- Schedule Name

OS:OtherEquipment:Definition,
  {682403db-87ae-41e0-9568-8c0aee318cad}, !- Handle
  CE_lat_generic,                         !- Name
  EquipmentLevel,                         !- Design Level Calculation Method
  0,                                      !- Design Level {W}
  ,                                       !- Watts per Space Floor Area {W/m2}
  ,                                       !- Watts per Person {W/Person}
  1,                                      !- Fraction Latent
  0;                                      !- Fraction Radiant

OS:Schedule:Constant,
  {602788bd-52ca-421e-b98b-c97a1e23a3e0}, !- Handle
  22.2 C,                                 !- Name
  {6c470d34-db16-4c58-81f7-1b79cf84ce97}, !- Schedule Type Limits Name
  22.2;                                   !- Value

OS:Schedule:Ruleset,
  {1a1085e9-14a2-42b1-ab9c-b1d0eeb0f124}, !- Handle
  No Heating,                             !- Name
  {6c470d34-db16-4c58-81f7-1b79cf84ce97}, !- Schedule Type Limits Name
  {fd75f4e7-f860-4b22-b123-25a7b74935aa}; !- Default Day Schedule Name

OS:ScheduleTypeLimits,
  {6c470d34-db16-4c58-81f7-1b79cf84ce97}, !- Handle
  Temperature,                            !- Name
  ,                                       !- Lower Limit Value
  ,                                       !- Upper Limit Value
  Continuous,                             !- Numeric Type
  Temperature;                            !- Unit Type

OS:Schedule:Day,
  {fd75f4e7-f860-4b22-b123-25a7b74935aa}, !- Handle
  Schedule Day 2,                         !- Name
  {6c470d34-db16-4c58-81f7-1b79cf84ce97}, !- Schedule Type Limits Name
  ,                                       !- Interpolate to Timestep
  24,                                     !- Hour 1
  0,                                      !- Minute 1
  -100;                                   !- Value Until Time 1

OS:ThermostatSetpoint:DualSetpoint,
  {c91b7e24-823e-42d7-9258-8439df71b92f}, !- Handle
  Thermostat Setpoint Dual Setpoint 1,    !- Name
  {1a1085e9-14a2-42b1-ab9c-b1d0eeb0f124}, !- Heating Setpoint Temperature Schedule Name
  {602788bd-52ca-421e-b98b-c97a1e23a3e0}; !- Cooling Setpoint Temperature Schedule Name

OS:Schedule:Constant,
  {3c9153ac-b4d1-47e7-b670-1636cbee4596}, !- Handle
  Always On Discrete,                     !- Name
  {5116d781-9bc7-4a42-9d48-740bd7df9b36}, !- Schedule Type Limits Name
  1;                                      !- Value

OS:ScheduleTypeLimits,
  {5116d781-9bc7-4a42-9d48-740bd7df9b36}, !- Handle
  OnOff,                                  !- Name
  0,                                      !- Lower Limit Value
  1,                                      !- Upper Limit Value
  Discrete,                               !- Numeric Type
  Availability;                           !- Unit Type

OS:AirLoopHVAC,
  {cbb89085-14c2-4da1-a1ed-060f8051e58c}, !- Handle
  BESTEST CE air loop,                    !- Name
  ,                                       !- Controller List Name
  {3c9153ac-b4d1-47e7-b670-1636cbee4596}, !- Availability Schedule
  ,                                       !- Availability Manager
  1.888,                                  !- Design Supply Air Flow Rate {m3/s}
  ,                                       !- Branch List Name
  ,                                       !- Connector List Name
  {8d51b975-fc7f-4a51-8ff8-193b6f374d86}, !- Supply Side Inlet Node Name
  {5fd462b2-9e84-4005-97e3-cc3aa265b4e6}, !- Demand Side Outlet Node Name
  {3e81452d-2a10-44ac-8083-d1ff028079b2}, !- Demand Side Inlet Node A
  {847bfe5e-2a9a-4643-8eba-3cc1bc562d0e}, !- Supply Side Outlet Node A
  ,                                       !- Demand Side Inlet Node B
  ;                                       !- Supply Side Outlet Node B

OS:Node,
  {c4bfe655-2af4-47cc-9c68-74180de25143}, !- Handle
  Node 2,                                 !- Name
  {8d51b975-fc7f-4a51-8ff8-193b6f374d86}, !- Inlet Port
  {2aa6e8d8-5b5b-4954-9d52-b467bc5b85f1}; !- Outlet Port

OS:Node,
  {96713f84-aded-43f6-a2b3-1fba2014da21}, !- Handle
  Node 3,                                 !- Name
  {b69b06fe-80a3-4b33-81ea-340584f836e5}, !- Inlet Port
  {847bfe5e-2a9a-4643-8eba-3cc1bc562d0e}; !- Outlet Port

OS:Connection,
  {8d51b975-fc7f-4a51-8ff8-193b6f374d86}, !- Handle
  {4d971103-be30-4c4b-b9e9-f9c9ab382355}, !- Name
  {cbb89085-14c2-4da1-a1ed-060f8051e58c}, !- Source Object
  8,                                      !- Outlet Port
  {c4bfe655-2af4-47cc-9c68-74180de25143}, !- Target Object
  2;                                      !- Inlet Port

OS:Connection,
  {847bfe5e-2a9a-4643-8eba-3cc1bc562d0e}, !- Handle
  {5bcebe75-8fff-4dd1-a586-522632908c14}, !- Name
  {96713f84-aded-43f6-a2b3-1fba2014da21}, !- Source Object
  3,                                      !- Outlet Port
  {cbb89085-14c2-4da1-a1ed-060f8051e58c}, !- Target Object
  11;                                     !- Inlet Port

OS:Node,
  {43d53f74-d07c-4dfa-a0cf-7d153d5f06a2}, !- Handle
  Node 4,                                 !- Name
  {3e81452d-2a10-44ac-8083-d1ff028079b2}, !- Inlet Port
  {6afe3353-9160-4b14-b1e1-23f050c09d5b}; !- Outlet Port

OS:Node,
  {006b1396-b18a-4367-b249-85d0246d01f3}, !- Handle
  Node 5,                                 !- Name
  {2a60b21a-ed96-4a3b-89a1-c6d6ce6f2be1}, !- Inlet Port
  {5fd462b2-9e84-4005-97e3-cc3aa265b4e6}; !- Outlet Port

OS:Node,
  {eccb3849-1da3-4870-9b81-b54d245f67e9}, !- Handle
  Node 6,                                 !- Name
  {bcf03560-55bd-4e6d-973a-f27058e0b2cd}, !- Inlet Port
  {855c0763-8dfc-4731-af01-51983c9d2804}; !- Outlet Port
