
OS:Version,
  {b8b86295-ef6e-45c4-b25f-ca32e681ce43}, !- Handle
  1.13.1;                                 !- Version Identifier

OS:Site,
  {bc874655-a927-4872-a278-1347186bb1d9}, !- Handle
  MIAMI_FL_USA,                           !- Name
  25.8,                                   !- Latitude {deg}
  -80.27,                                 !- Longitude {deg}
  -5,                                     !- Time Zone {hr}
  2,                                      !- Elevation {m}
  Country;                                !- Terrain

OS:YearDescription,
  {9116ce1c-534f-4b3a-9d15-2bb1a805c7e1}, !- Handle
  2008,                                   !- Calendar Year
  ,                                       !- Day of Week for Start Day
  ;                                       !- Is Leap Year

OS:ClimateZones,
  {dd268d6b-2da7-4abc-b8ad-35d0988c56cd}, !- Handle
  ,                                       !- Active Institution
  ,                                       !- Active Year
  ASHRAE,                                 !- Climate Zone Institution Name 1
  ANSI/ASHRAE Standard 169,               !- Climate Zone Document Name 1
  2006,                                   !- Climate Zone Document Year 1
  ,                                       !- Climate Zone Value 1
  CEC,                                    !- Climate Zone Institution Name 2
  California Climate Zone Descriptions,   !- Climate Zone Document Name 2
  1995,                                   !- Climate Zone Document Year 2
  ;                                       !- Climate Zone Value 2

OS:Facility,
  {01cd2b0a-8ee0-4ab6-a2fb-9f6c7d21094d}; !- Handle

OS:SimulationControl,
  {30e9303f-ed23-491c-b310-8ef7274e967f}, !- Handle
  ,                                       !- Do Zone Sizing Calculation
  ,                                       !- Do System Sizing Calculation
  ,                                       !- Do Plant Sizing Calculation
  No,                                     !- Run Simulation for Sizing Periods
  ,                                       !- Run Simulation for Weather File Run Periods
  ,                                       !- Loads Convergence Tolerance Value
  ,                                       !- Temperature Convergence Tolerance Value {deltaC}
  FullInteriorAndExterior,                !- Solar Distribution
  ,                                       !- Maximum Number of Warmup Days
  6;                                      !- Minimum Number of Warmup Days

OS:Sizing:Parameters,
  {c983733e-8a2d-428d-8380-a9c380f3d01c}, !- Handle
  1.25,                                   !- Heating Sizing Factor
  1.15;                                   !- Cooling Sizing Factor

OS:Timestep,
  {7a470c9d-4813-47b4-b276-325100b7b62f}, !- Handle
  4;                                      !- Number of Timesteps per Hour

OS:ShadowCalculation,
  {21696cf9-7a12-43bf-ac4c-50d1be8bf2fd}, !- Handle
  20,                                     !- Calculation Frequency
  15000;                                  !- Maximum Figures in Shadow Overlap Calculations

OS:HeatBalanceAlgorithm,
  {09f4a614-27ba-43a9-a0ac-4379e03c44e8}, !- Handle
  ConductionTransferFunction,             !- Algorithm
  200;                                    !- Surface Temperature Upper Limit {C}

OS:RunPeriod,
  {322b0b21-e55e-459f-b4f2-853d2d37fd9a}, !- Handle
  Run Period 1,                           !- Name
  1,                                      !- Begin Month
  1,                                      !- Begin Day of Month
  12,                                     !- End Month
  31,                                     !- End Day of Month
  ,                                       !- Use Weather File Holidays and Special Days
  ,                                       !- Use Weather File Daylight Saving Period
  ,                                       !- Apply Weekend Holiday Rule
  ,                                       !- Use Weather File Rain Indicators
  ,                                       !- Use Weather File Snow Indicators
  ;                                       !- Number of Times Runperiod to be Repeated

OS:LifeCycleCost:Parameters,
  {a8ce31c8-7533-4ad7-aa7a-5380b4197455}, !- Handle
  ,                                       !- Analysis Type
  ,                                       !- Discounting Convention
  ,                                       !- Inflation Approach
  ,                                       !- Real Discount Rate
  ,                                       !- Nominal Discount Rate
  ,                                       !- Inflation
  ,                                       !- Base Date Month
  ,                                       !- Base Date Year
  ,                                       !- Service Date Month
  ,                                       !- Service Date Year
  ;                                       !- Length of Study Period in Years

OS:SurfaceConvectionAlgorithm:Inside,
  {2f7f01ff-33f3-4ec2-b26e-21e0d80eb616}, !- Handle
  TARP;                                   !- Algorithm

OS:SurfaceConvectionAlgorithm:Outside,
  {6155ce34-7c4c-4200-972e-3e68f673dffc}, !- Handle
  TARP;                                   !- Algorithm

OS:WeatherFile,
  {26edddcd-e29d-46da-91f2-301d43a9bf71}, !- Handle
  MIAMI,                                  !- City
  FL,                                     !- State Province Region
  USA,                                    !- Country
  TMY2-12839,                             !- Data Source
  722020,                                 !- WMO Number
  25.8,                                   !- Latitude {deg}
  -80.27,                                 !- Longitude {deg}
  -5,                                     !- Time Zone {hr}
  2,                                      !- Elevation {m}
  file:///Users/dgoldwas/Documents/GitHub/OSEP_BESTTEST/measures/bestest_space_cooling_equipment_performance_tests/resources/CE100ATM2.epw, !- Url
  5F480EBD;                               !- Checksum

OS:SizingPeriod:DesignDay,
  {4a8ae27c-6f8a-4ff1-a4a5-222c60cd6b91}, !- Handle
  Sizing Period Design Day 1,             !- Name
  23,                                     !- Maximum Dry-Bulb Temperature {C}
  0,                                      !- Daily Dry-Bulb Temperature Range {deltaC}
  23,                                     !- Humidity Indicating Conditions at Maximum Dry-Bulb
  31000,                                  !- Barometric Pressure {Pa}
  0,                                      !- Wind Speed {m/s}
  0,                                      !- Wind Direction {deg}
  0,                                      !- Sky Clearness
  ,                                       !- Rain Indicator
  0,                                      !- Snow Indicator
  1,                                      !- Day of Month
  1,                                      !- Month
  SummerDesignDay,                        !- Day Type
  0,                                      !- Daylight Saving Time Indicator
  WetBulb,                                !- Humidity Indicating Type
  ,                                       !- Humidity Indicating Day Schedule Name
  DefaultMultipliers,                     !- Dry-Bulb Temperature Range Modifier Type
  ,                                       !- Dry-Bulb Temperature Range Modifier Schedule Name
  AshraeClearSky;                         !- Solar Model Indicator

OS:SizingPeriod:DesignDay,
  {2a5bedd5-423c-4d1e-ae5e-1b82328b14c9}, !- Handle
  Sizing Period Design Day 2,             !- Name
  23,                                     !- Maximum Dry-Bulb Temperature {C}
  0,                                      !- Daily Dry-Bulb Temperature Range {deltaC}
  23,                                     !- Humidity Indicating Conditions at Maximum Dry-Bulb
  31000,                                  !- Barometric Pressure {Pa}
  0,                                      !- Wind Speed {m/s}
  0,                                      !- Wind Direction {deg}
  0,                                      !- Sky Clearness
  ,                                       !- Rain Indicator
  0,                                      !- Snow Indicator
  1,                                      !- Day of Month
  1,                                      !- Month
  WinterDesignDay,                        !- Day Type
  0,                                      !- Daylight Saving Time Indicator
  WetBulb,                                !- Humidity Indicating Type
  ,                                       !- Humidity Indicating Day Schedule Name
  DefaultMultipliers,                     !- Dry-Bulb Temperature Range Modifier Type
  ,                                       !- Dry-Bulb Temperature Range Modifier Schedule Name
  AshraeClearSky;                         !- Solar Model Indicator

OS:Building,
  {42189e22-1377-4d9c-b1dc-d06fb6cca1d9}, !- Handle
  BESTEST Case CE100 - Base-Case Building and Mechanical System, !- Name
  ,                                       !- Building Sector Type
  0,                                      !- North Axis {deg}
  ,                                       !- Nominal Floor to Floor Height {m}
  ,                                       !- Space Type Name
  ,                                       !- Default Construction Set Name
  ;                                       !- Default Schedule Set Name

OS:ThermalZone,
  {62de2778-0d6f-4613-a6a5-9063199d5dd7}, !- Handle
  ZONE ONE,                               !- Name
  1,                                      !- Multiplier
  2.7,                                    !- Ceiling Height {m}
  129.6,                                  !- Volume {m3}
  ,                                       !- Floor Area {m2}
  ,                                       !- Zone Inside Convection Algorithm
  ,                                       !- Zone Outside Convection Algorithm
  ,                                       !- Zone Conditioning Equipment List Name
  {4cd105cc-bcd5-4c92-b6fe-e26301749f6a}, !- Zone Air Inlet Port List
  {45b7a5e5-50f9-4523-852d-3578df87e12d}, !- Zone Air Exhaust Port List
  {71040ea1-0ae5-4b79-93f3-5908353b46a4}, !- Zone Air Node Name
  {cef74f64-2c7d-4285-919c-2cddda13bac6}, !- Zone Return Air Node Name
  ,                                       !- Primary Daylighting Control Name
  ,                                       !- Fraction of Zone Controlled by Primary Daylighting Control
  ,                                       !- Secondary Daylighting Control Name
  ,                                       !- Fraction of Zone Controlled by Secondary Daylighting Control
  ,                                       !- Illuminance Map Name
  ,                                       !- Group Rendering Name
  {e891fd41-0834-4206-8e46-da958db14a36}, !- Thermostat Name
  No,                                     !- Use Ideal Air Loads
  ;                                       !- Humidistat Name

OS:Node,
  {9ba4632e-6906-40ce-9d37-b2348fe83e78}, !- Handle
  Node 1,                                 !- Name
  {71040ea1-0ae5-4b79-93f3-5908353b46a4}, !- Inlet Port
  ;                                       !- Outlet Port

OS:Connection,
  {71040ea1-0ae5-4b79-93f3-5908353b46a4}, !- Handle
  {1225a12d-f60a-4bd7-b7aa-c9b69d02289a}, !- Name
  {62de2778-0d6f-4613-a6a5-9063199d5dd7}, !- Source Object
  11,                                     !- Outlet Port
  {9ba4632e-6906-40ce-9d37-b2348fe83e78}, !- Target Object
  2;                                      !- Inlet Port

OS:PortList,
  {4cd105cc-bcd5-4c92-b6fe-e26301749f6a}, !- Handle
  Port List 1,                            !- Name
  {62de2778-0d6f-4613-a6a5-9063199d5dd7}, !- HVAC Component
  {162d2745-c781-4380-a2f9-240fb9a90dd1}; !- Port 1

OS:PortList,
  {45b7a5e5-50f9-4523-852d-3578df87e12d}, !- Handle
  Port List 2,                            !- Name
  {62de2778-0d6f-4613-a6a5-9063199d5dd7}; !- HVAC Component

OS:Sizing:Zone,
  {83608e9b-50a3-4682-906f-cf19f62ff50c}, !- Handle
  {62de2778-0d6f-4613-a6a5-9063199d5dd7}, !- Zone or ZoneList Name
  SupplyAirTemperature,                   !- Zone Cooling Design Supply Air Temperature Input Method
  14,                                     !- Zone Cooling Design Supply Air Temperature {C}
  11.11,                                  !- Zone Cooling Design Supply Air Temperature Difference {deltaC}
  SupplyAirTemperature,                   !- Zone Heating Design Supply Air Temperature Input Method
  40,                                     !- Zone Heating Design Supply Air Temperature {C}
  11.11,                                  !- Zone Heating Design Supply Air Temperature Difference {deltaC}
  0.0085,                                 !- Zone Cooling Design Supply Air Humidity Ratio {kg-H2O/kg-air}
  0.008,                                  !- Zone Heating Design Supply Air Humidity Ratio {kg-H2O/kg-air}
  ,                                       !- Zone Heating Sizing Factor
  ,                                       !- Zone Cooling Sizing Factor
  DesignDay,                              !- Cooling Design Air Flow Method
  ,                                       !- Cooling Design Air Flow Rate {m3/s}
  ,                                       !- Cooling Minimum Air Flow per Zone Floor Area {m3/s-m2}
  ,                                       !- Cooling Minimum Air Flow {m3/s}
  ,                                       !- Cooling Minimum Air Flow Fraction
  DesignDay,                              !- Heating Design Air Flow Method
  ,                                       !- Heating Design Air Flow Rate {m3/s}
  ,                                       !- Heating Maximum Air Flow per Zone Floor Area {m3/s-m2}
  ,                                       !- Heating Maximum Air Flow {m3/s}
  ,                                       !- Heating Maximum Air Flow Fraction
  ,                                       !- Design Zone Air Distribution Effectiveness in Cooling Mode
  ,                                       !- Design Zone Air Distribution Effectiveness in Heating Mode
  No,                                     !- Account for Dedicated Outdoor Air System
  NeutralSupplyAir,                       !- Dedicated Outdoor Air System Control Strategy
  autosize,                               !- Dedicated Outdoor Air Low Setpoint Temperature for Design {C}
  autosize;                               !- Dedicated Outdoor Air High Setpoint Temperature for Design {C}

OS:ZoneHVAC:EquipmentList,
  {9e7c5611-58b5-4890-9f1c-418282ec1735}, !- Handle
  Zone HVAC Equipment List 1,             !- Name
  {62de2778-0d6f-4613-a6a5-9063199d5dd7}, !- Thermal Zone
  {0549e152-1acb-4c56-a232-f807de40a8ec}, !- Zone Equipment 1
  1,                                      !- Zone Equipment Cooling Sequence 1
  1;                                      !- Zone Equipment Heating or No-Load Sequence 1

OS:Space,
  {2a0bfe96-4161-4478-8769-dd3c88736e1b}, !- Handle
  ZONE ONE Space,                         !- Name
  ,                                       !- Space Type Name
  ,                                       !- Default Construction Set Name
  ,                                       !- Default Schedule Set Name
  0,                                      !- Direction of Relative North {deg}
  0,                                      !- X Origin {m}
  0,                                      !- Y Origin {m}
  0,                                      !- Z Origin {m}
  ,                                       !- Building Story Name
  {62de2778-0d6f-4613-a6a5-9063199d5dd7}; !- Thermal Zone Name

OS:Surface,
  {714bd96f-ad0d-4fb9-9e34-9a7e70d783a0}, !- Handle
  ZONE SURFACE FLOOR,                     !- Name
  Floor,                                  !- Surface Type
  {46ca3e01-4548-45e2-8db8-663cb6eb39e8}, !- Construction Name
  {2a0bfe96-4161-4478-8769-dd3c88736e1b}, !- Space Name
  Outdoors,                               !- Outside Boundary Condition
  ,                                       !- Outside Boundary Condition Object
  SunExposed,                             !- Sun Exposure
  WindExposed,                            !- Wind Exposure
  0,                                      !- View Factor to Ground
  ,                                       !- Number of Vertices
  8, 6, 0,                                !- X,Y,Z Vertex 1 {m}
  8, 0, 0,                                !- X,Y,Z Vertex 2 {m}
  0, 0, 0,                                !- X,Y,Z Vertex 3 {m}
  0, 6, 0;                                !- X,Y,Z Vertex 4 {m}

OS:Construction,
  {46ca3e01-4548-45e2-8db8-663cb6eb39e8}, !- Handle
  LTWALL,                                 !- Name
  ,                                       !- Surface Rendering Name
  {ff367981-b4de-47a7-9682-bcb7f7d492d1}, !- Layer 1
  {f29882fe-e0dc-4a0a-a7bc-f6fdefdc58ba}; !- Layer 2

OS:Material:NoMass,
  {ff367981-b4de-47a7-9682-bcb7f7d492d1}, !- Handle
  INSULATION-EXT,                         !- Name
  VerySmooth,                             !- Roughness
  50,                                     !- Thermal Resistance {m2-K/W}
  0.9,                                    !- Thermal Absorptance
  0.1,                                    !- Solar Absorptance
  0.1;                                    !- Visible Absorptance

OS:Material:NoMass,
  {f29882fe-e0dc-4a0a-a7bc-f6fdefdc58ba}, !- Handle
  INSULATION-INT,                         !- Name
  VerySmooth,                             !- Roughness
  50,                                     !- Thermal Resistance {m2-K/W}
  0.9,                                    !- Thermal Absorptance
  0.6,                                    !- Solar Absorptance
  0.6;                                    !- Visible Absorptance

OS:Surface,
  {8de3eb27-fb7d-4867-8837-308ad34c87f4}, !- Handle
  ZONE SURFACE SOUTH,                     !- Name
  Wall,                                   !- Surface Type
  {46ca3e01-4548-45e2-8db8-663cb6eb39e8}, !- Construction Name
  {2a0bfe96-4161-4478-8769-dd3c88736e1b}, !- Space Name
  Outdoors,                               !- Outside Boundary Condition
  ,                                       !- Outside Boundary Condition Object
  SunExposed,                             !- Sun Exposure
  WindExposed,                            !- Wind Exposure
  0.5,                                    !- View Factor to Ground
  ,                                       !- Number of Vertices
  0, 0, 2.7,                              !- X,Y,Z Vertex 1 {m}
  0, 0, 0,                                !- X,Y,Z Vertex 2 {m}
  8, 0, 0,                                !- X,Y,Z Vertex 3 {m}
  8, 0, 2.7;                              !- X,Y,Z Vertex 4 {m}

OS:Surface,
  {bb695d77-6e95-442f-9f02-6bebeea77c51}, !- Handle
  ZONE SURFACE WEST,                      !- Name
  Wall,                                   !- Surface Type
  {46ca3e01-4548-45e2-8db8-663cb6eb39e8}, !- Construction Name
  {2a0bfe96-4161-4478-8769-dd3c88736e1b}, !- Space Name
  Outdoors,                               !- Outside Boundary Condition
  ,                                       !- Outside Boundary Condition Object
  SunExposed,                             !- Sun Exposure
  WindExposed,                            !- Wind Exposure
  0.5,                                    !- View Factor to Ground
  ,                                       !- Number of Vertices
  0, 6, 2.7,                              !- X,Y,Z Vertex 1 {m}
  0, 6, 0,                                !- X,Y,Z Vertex 2 {m}
  0, 0, 0,                                !- X,Y,Z Vertex 3 {m}
  0, 0, 2.7;                              !- X,Y,Z Vertex 4 {m}

OS:Surface,
  {1dcc6fff-f8fd-4ce4-8732-04a5a5417e95}, !- Handle
  ZONE SURFACE NORTH,                     !- Name
  Wall,                                   !- Surface Type
  {46ca3e01-4548-45e2-8db8-663cb6eb39e8}, !- Construction Name
  {2a0bfe96-4161-4478-8769-dd3c88736e1b}, !- Space Name
  Outdoors,                               !- Outside Boundary Condition
  ,                                       !- Outside Boundary Condition Object
  SunExposed,                             !- Sun Exposure
  WindExposed,                            !- Wind Exposure
  0.5,                                    !- View Factor to Ground
  ,                                       !- Number of Vertices
  8, 6, 2.7,                              !- X,Y,Z Vertex 1 {m}
  8, 6, 0,                                !- X,Y,Z Vertex 2 {m}
  0, 6, 0,                                !- X,Y,Z Vertex 3 {m}
  0, 6, 2.7;                              !- X,Y,Z Vertex 4 {m}

OS:Surface,
  {9cc28849-eaba-4269-8be4-7a4fcb2e390c}, !- Handle
  ZONE SURFACE ROOF,                      !- Name
  RoofCeiling,                            !- Surface Type
  {46ca3e01-4548-45e2-8db8-663cb6eb39e8}, !- Construction Name
  {2a0bfe96-4161-4478-8769-dd3c88736e1b}, !- Space Name
  Outdoors,                               !- Outside Boundary Condition
  ,                                       !- Outside Boundary Condition Object
  SunExposed,                             !- Sun Exposure
  WindExposed,                            !- Wind Exposure
  0,                                      !- View Factor to Ground
  ,                                       !- Number of Vertices
  8, 0, 2.7,                              !- X,Y,Z Vertex 1 {m}
  8, 6, 2.7,                              !- X,Y,Z Vertex 2 {m}
  0, 6, 2.7,                              !- X,Y,Z Vertex 3 {m}
  0, 0, 2.7;                              !- X,Y,Z Vertex 4 {m}

OS:Surface,
  {dfd7039a-88d9-427e-bb98-10f69ff499ed}, !- Handle
  ZONE SURFACE EAST,                      !- Name
  Wall,                                   !- Surface Type
  {46ca3e01-4548-45e2-8db8-663cb6eb39e8}, !- Construction Name
  {2a0bfe96-4161-4478-8769-dd3c88736e1b}, !- Space Name
  Outdoors,                               !- Outside Boundary Condition
  ,                                       !- Outside Boundary Condition Object
  SunExposed,                             !- Sun Exposure
  WindExposed,                            !- Wind Exposure
  0.5,                                    !- View Factor to Ground
  ,                                       !- Number of Vertices
  8, 0, 2.7,                              !- X,Y,Z Vertex 1 {m}
  8, 0, 0,                                !- X,Y,Z Vertex 2 {m}
  8, 6, 0,                                !- X,Y,Z Vertex 3 {m}
  8, 6, 2.7;                              !- X,Y,Z Vertex 4 {m}

OS:OtherEquipment,
  {0df7034f-8aaf-4686-b557-9f4714dab030}, !- Handle
  CE_sens_generic_inst,                   !- Name
  {7b0a98e6-54ea-4025-a6e5-c6ff94aa9a36}, !- Other Equipment Definition Name
  {2a0bfe96-4161-4478-8769-dd3c88736e1b}, !- Space or SpaceType Name
  {6982004b-fbd4-4a8a-8218-915159ce1375}; !- Schedule Name

OS:OtherEquipment:Definition,
  {7b0a98e6-54ea-4025-a6e5-c6ff94aa9a36}, !- Handle
  CE_sens_generic,                        !- Name
  EquipmentLevel,                         !- Design Level Calculation Method
  5400,                                   !- Design Level {W}
  ,                                       !- Watts per Space Floor Area {W/m2}
  ;                                       !- Watts per Person {W/Person}

OS:Schedule:Ruleset,
  {6982004b-fbd4-4a8a-8218-915159ce1375}, !- Handle
  Always On Ruleset Fractional,           !- Name
  {c5c55fa0-caf4-4179-ba57-ea35d94a5001}, !- Schedule Type Limits Name
  {1e3a5939-bacf-4863-bdff-073cd532f1f4}; !- Default Day Schedule Name

OS:Schedule:Day,
  {1e3a5939-bacf-4863-bdff-073cd532f1f4}, !- Handle
  Schedule Day 6,                         !- Name
  {c5c55fa0-caf4-4179-ba57-ea35d94a5001}, !- Schedule Type Limits Name
  ,                                       !- Interpolate to Timestep
  24,                                     !- Hour 1
  0,                                      !- Minute 1
  1;                                      !- Value Until Time 1

OS:ScheduleTypeLimits,
  {c5c55fa0-caf4-4179-ba57-ea35d94a5001}, !- Handle
  Fractional,                             !- Name
  0,                                      !- Lower Limit Value
  1,                                      !- Upper Limit Value
  Continuous;                             !- Numeric Type

OS:OtherEquipment,
  {572095f0-4292-44d8-bc95-eaab40220466}, !- Handle
  CE_lat_generic_inst,                    !- Name
  {27f884fe-2c41-4912-b3bc-befc86a5575a}, !- Other Equipment Definition Name
  {2a0bfe96-4161-4478-8769-dd3c88736e1b}, !- Space or SpaceType Name
  {6982004b-fbd4-4a8a-8218-915159ce1375}; !- Schedule Name

OS:OtherEquipment:Definition,
  {27f884fe-2c41-4912-b3bc-befc86a5575a}, !- Handle
  CE_lat_generic,                         !- Name
  EquipmentLevel,                         !- Design Level Calculation Method
  0,                                      !- Design Level {W}
  ,                                       !- Watts per Space Floor Area {W/m2}
  ,                                       !- Watts per Person {W/Person}
  1,                                      !- Fraction Latent
  0;                                      !- Fraction Radiant

OS:Schedule:Constant,
  {4bb81732-cd34-4e2c-b94a-f36e5a61afe2}, !- Handle
  22.2 C,                                 !- Name
  {72ced2ab-994b-4b7b-ac61-ab65fcf16d95}, !- Schedule Type Limits Name
  22.2;                                   !- Value

OS:Schedule:Ruleset,
  {e23361b3-427d-412f-a488-a4367a88b95e}, !- Handle
  No Heating,                             !- Name
  {72ced2ab-994b-4b7b-ac61-ab65fcf16d95}, !- Schedule Type Limits Name
  {81d06f3a-f01a-449c-9514-27bcf150383f}; !- Default Day Schedule Name

OS:ScheduleTypeLimits,
  {72ced2ab-994b-4b7b-ac61-ab65fcf16d95}, !- Handle
  Temperature,                            !- Name
  ,                                       !- Lower Limit Value
  ,                                       !- Upper Limit Value
  Continuous,                             !- Numeric Type
  Temperature;                            !- Unit Type

OS:Schedule:Day,
  {81d06f3a-f01a-449c-9514-27bcf150383f}, !- Handle
  Schedule Day 2,                         !- Name
  {72ced2ab-994b-4b7b-ac61-ab65fcf16d95}, !- Schedule Type Limits Name
  ,                                       !- Interpolate to Timestep
  24,                                     !- Hour 1
  0,                                      !- Minute 1
  -100;                                   !- Value Until Time 1

OS:ThermostatSetpoint:DualSetpoint,
  {e891fd41-0834-4206-8e46-da958db14a36}, !- Handle
  Thermostat Setpoint Dual Setpoint 1,    !- Name
  {e23361b3-427d-412f-a488-a4367a88b95e}, !- Heating Setpoint Temperature Schedule Name
  {4bb81732-cd34-4e2c-b94a-f36e5a61afe2}; !- Cooling Setpoint Temperature Schedule Name

OS:Schedule:Constant,
  {c7186075-820e-4194-b7a6-94b582bcef12}, !- Handle
  Always On Discrete,                     !- Name
  {e48d1fa8-6741-42d1-8fbc-695e530effad}, !- Schedule Type Limits Name
  1;                                      !- Value

OS:ScheduleTypeLimits,
  {e48d1fa8-6741-42d1-8fbc-695e530effad}, !- Handle
  OnOff,                                  !- Name
  0,                                      !- Lower Limit Value
  1,                                      !- Upper Limit Value
  Discrete,                               !- Numeric Type
  Availability;                           !- Unit Type

OS:AirLoopHVAC,
  {937c2dad-2f86-4e3d-b5b2-d16192696594}, !- Handle
  BESTEST CE air loop,                    !- Name
  ,                                       !- Controller List Name
  {c7186075-820e-4194-b7a6-94b582bcef12}, !- Availability Schedule
  ,                                       !- Availability Manager
  1.888,                                  !- Design Supply Air Flow Rate {m3/s}
  ,                                       !- Branch List Name
  ,                                       !- Connector List Name
  {19c44566-6163-4226-8239-f2038438ee2a}, !- Supply Side Inlet Node Name
  {dee421a2-86c8-4faf-9a0c-08c0b1cb9142}, !- Demand Side Outlet Node Name
  {6dd3443e-b74f-448a-9f90-e348b9f87da0}, !- Demand Side Inlet Node A
  {5a950900-c28c-46a9-b399-c38560ab0ff1}, !- Supply Side Outlet Node A
  ,                                       !- Demand Side Inlet Node B
  ;                                       !- Supply Side Outlet Node B

OS:Node,
  {39eccac5-9c38-4b43-b141-70f53eb83f98}, !- Handle
  Node 2,                                 !- Name
  {19c44566-6163-4226-8239-f2038438ee2a}, !- Inlet Port
  {fe2a2d03-b49f-4f25-a8d1-e715369daa4b}; !- Outlet Port

OS:Node,
  {a00f3995-0d7b-4300-8bae-9b8e0c7f2d22}, !- Handle
  Node 3,                                 !- Name
  {63941320-feb1-407f-9110-88057e3c35fc}, !- Inlet Port
  {5a950900-c28c-46a9-b399-c38560ab0ff1}; !- Outlet Port

OS:Connection,
  {19c44566-6163-4226-8239-f2038438ee2a}, !- Handle
  {bdf68e56-f07f-4d50-8710-6080334390b9}, !- Name
  {937c2dad-2f86-4e3d-b5b2-d16192696594}, !- Source Object
  8,                                      !- Outlet Port
  {39eccac5-9c38-4b43-b141-70f53eb83f98}, !- Target Object
  2;                                      !- Inlet Port

OS:Connection,
  {5a950900-c28c-46a9-b399-c38560ab0ff1}, !- Handle
  {73087e2e-b82b-4cd2-af45-7f6578e5eea4}, !- Name
  {a00f3995-0d7b-4300-8bae-9b8e0c7f2d22}, !- Source Object
  3,                                      !- Outlet Port
  {937c2dad-2f86-4e3d-b5b2-d16192696594}, !- Target Object
  11;                                     !- Inlet Port

OS:Node,
  {56328336-4d7e-459d-9b00-7b5ff2612820}, !- Handle
  Node 4,                                 !- Name
  {6dd3443e-b74f-448a-9f90-e348b9f87da0}, !- Inlet Port
  {630c91ba-e9ee-408d-9169-6bb1207f87ac}; !- Outlet Port

OS:Node,
  {d5ede8c9-ada2-454c-ba61-b469b5db2f97}, !- Handle
  Node 5,                                 !- Name
  {47c13d8f-0f55-4961-a65d-19304408a0ad}, !- Inlet Port
  {dee421a2-86c8-4faf-9a0c-08c0b1cb9142}; !- Outlet Port

OS:Node,
  {928f1e1e-eba6-44ce-bf4b-27b9b73e1561}, !- Handle
  Node 6,                                 !- Name
  {82ffa1b0-7637-40cb-a533-5e4c93e27704}, !- Inlet Port