
OS:Version,
  {a1b7ff9e-622f-45d2-ab9f-eacb151cb928}, !- Handle
  1.13.1;                                 !- Version Identifier

OS:Site,
  {bc874655-a927-4872-a278-1347186bb1d9}, !- Handle
  MIAMI_FL_USA,                           !- Name
  25.8,                                   !- Latitude {deg}
  -80.27,                                 !- Longitude {deg}
  -5,                                     !- Time Zone {hr}
  2,                                      !- Elevation {m}
  Country;                                !- Terrain

OS:YearDescription,
  {9116ce1c-534f-4b3a-9d15-2bb1a805c7e1}, !- Handle
  2008,                                   !- Calendar Year
  ,                                       !- Day of Week for Start Day
  ;                                       !- Is Leap Year

OS:ClimateZones,
  {dd268d6b-2da7-4abc-b8ad-35d0988c56cd}, !- Handle
  ,                                       !- Active Institution
  ,                                       !- Active Year
  ASHRAE,                                 !- Climate Zone Institution Name 1
  ANSI/ASHRAE Standard 169,               !- Climate Zone Document Name 1
  2006,                                   !- Climate Zone Document Year 1
  ,                                       !- Climate Zone Value 1
  CEC,                                    !- Climate Zone Institution Name 2
  California Climate Zone Descriptions,   !- Climate Zone Document Name 2
  1995,                                   !- Climate Zone Document Year 2
  ;                                       !- Climate Zone Value 2

OS:Facility,
  {01cd2b0a-8ee0-4ab6-a2fb-9f6c7d21094d}; !- Handle

OS:SimulationControl,
  {30e9303f-ed23-491c-b310-8ef7274e967f}, !- Handle
  ,                                       !- Do Zone Sizing Calculation
  ,                                       !- Do System Sizing Calculation
  ,                                       !- Do Plant Sizing Calculation
  No,                                     !- Run Simulation for Sizing Periods
  ,                                       !- Run Simulation for Weather File Run Periods
  ,                                       !- Loads Convergence Tolerance Value
  ,                                       !- Temperature Convergence Tolerance Value {deltaC}
  FullInteriorAndExterior,                !- Solar Distribution
  ,                                       !- Maximum Number of Warmup Days
  6;                                      !- Minimum Number of Warmup Days

OS:Sizing:Parameters,
  {c983733e-8a2d-428d-8380-a9c380f3d01c}, !- Handle
  1.25,                                   !- Heating Sizing Factor
  1.15;                                   !- Cooling Sizing Factor

OS:Timestep,
  {7a470c9d-4813-47b4-b276-325100b7b62f}, !- Handle
  4;                                      !- Number of Timesteps per Hour

OS:ShadowCalculation,
  {21696cf9-7a12-43bf-ac4c-50d1be8bf2fd}, !- Handle
  20,                                     !- Calculation Frequency
  15000;                                  !- Maximum Figures in Shadow Overlap Calculations

OS:HeatBalanceAlgorithm,
  {09f4a614-27ba-43a9-a0ac-4379e03c44e8}, !- Handle
  ConductionTransferFunction,             !- Algorithm
  200;                                    !- Surface Temperature Upper Limit {C}

OS:RunPeriod,
  {322b0b21-e55e-459f-b4f2-853d2d37fd9a}, !- Handle
  Run Period 1,                           !- Name
  1,                                      !- Begin Month
  1,                                      !- Begin Day of Month
  12,                                     !- End Month
  31,                                     !- End Day of Month
  ,                                       !- Use Weather File Holidays and Special Days
  ,                                       !- Use Weather File Daylight Saving Period
  ,                                       !- Apply Weekend Holiday Rule
  ,                                       !- Use Weather File Rain Indicators
  ,                                       !- Use Weather File Snow Indicators
  ;                                       !- Number of Times Runperiod to be Repeated

OS:LifeCycleCost:Parameters,
  {a8ce31c8-7533-4ad7-aa7a-5380b4197455}, !- Handle
  ,                                       !- Analysis Type
  ,                                       !- Discounting Convention
  ,                                       !- Inflation Approach
  ,                                       !- Real Discount Rate
  ,                                       !- Nominal Discount Rate
  ,                                       !- Inflation
  ,                                       !- Base Date Month
  ,                                       !- Base Date Year
  ,                                       !- Service Date Month
  ,                                       !- Service Date Year
  ;                                       !- Length of Study Period in Years

OS:SurfaceConvectionAlgorithm:Inside,
  {d3a2b452-0f36-486d-b92a-fce17c573562}, !- Handle
  TARP;                                   !- Algorithm

OS:SurfaceConvectionAlgorithm:Outside,
  {28fbc1c5-5f8e-4495-94f0-5e428ee4c3c2}, !- Handle
  TARP;                                   !- Algorithm

OS:WeatherFile,
  {0b52b35f-e7d3-4955-9a75-7a61aeef68eb}, !- Handle
  MIAMI,                                  !- City
  FL,                                     !- State Province Region
  USA,                                    !- Country
  TMY2-12839,                             !- Data Source
  722020,                                 !- WMO Number
  25.8,                                   !- Latitude {deg}
  -80.27,                                 !- Longitude {deg}
  -5,                                     !- Time Zone {hr}
  2,                                      !- Elevation {m}
  file:///Users/dgoldwas/Documents/GitHub/OSEP_BESTTEST/measures/bestest_space_cooling_equipment_performance_tests/resources/CE100ATM2.epw, !- Url
  5F480EBD;                               !- Checksum

OS:SizingPeriod:DesignDay,
  {34105fb8-cc7e-40d3-86ca-802dcbef6fde}, !- Handle
  Sizing Period Design Day 1,             !- Name
  23,                                     !- Maximum Dry-Bulb Temperature {C}
  0,                                      !- Daily Dry-Bulb Temperature Range {deltaC}
  23,                                     !- Humidity Indicating Conditions at Maximum Dry-Bulb
  31000,                                  !- Barometric Pressure {Pa}
  0,                                      !- Wind Speed {m/s}
  0,                                      !- Wind Direction {deg}
  0,                                      !- Sky Clearness
  ,                                       !- Rain Indicator
  0,                                      !- Snow Indicator
  1,                                      !- Day of Month
  1,                                      !- Month
  SummerDesignDay,                        !- Day Type
  0,                                      !- Daylight Saving Time Indicator
  WetBulb,                                !- Humidity Indicating Type
  ,                                       !- Humidity Indicating Day Schedule Name
  DefaultMultipliers,                     !- Dry-Bulb Temperature Range Modifier Type
  ,                                       !- Dry-Bulb Temperature Range Modifier Schedule Name
  AshraeClearSky;                         !- Solar Model Indicator

OS:SizingPeriod:DesignDay,
  {87462c5f-9727-4edc-ba4d-b46900133657}, !- Handle
  Sizing Period Design Day 2,             !- Name
  23,                                     !- Maximum Dry-Bulb Temperature {C}
  0,                                      !- Daily Dry-Bulb Temperature Range {deltaC}
  23,                                     !- Humidity Indicating Conditions at Maximum Dry-Bulb
  31000,                                  !- Barometric Pressure {Pa}
  0,                                      !- Wind Speed {m/s}
  0,                                      !- Wind Direction {deg}
  0,                                      !- Sky Clearness
  ,                                       !- Rain Indicator
  0,                                      !- Snow Indicator
  1,                                      !- Day of Month
  1,                                      !- Month
  WinterDesignDay,                        !- Day Type
  0,                                      !- Daylight Saving Time Indicator
  WetBulb,                                !- Humidity Indicating Type
  ,                                       !- Humidity Indicating Day Schedule Name
  DefaultMultipliers,                     !- Dry-Bulb Temperature Range Modifier Type
  ,                                       !- Dry-Bulb Temperature Range Modifier Schedule Name
  AshraeClearSky;                         !- Solar Model Indicator

OS:Building,
  {5b557487-54d9-4bc7-b3fd-2f666177e3fc}, !- Handle
  BESTEST Case CE100 - Base-Case Building and Mechanical System, !- Name
  ,                                       !- Building Sector Type
  0,                                      !- North Axis {deg}
  ,                                       !- Nominal Floor to Floor Height {m}
  ,                                       !- Space Type Name
  ,                                       !- Default Construction Set Name
  ;                                       !- Default Schedule Set Name

OS:ThermalZone,
  {1256c93c-2ece-41c7-ae47-e44e94bc81d0}, !- Handle
  ZONE ONE,                               !- Name
  1,                                      !- Multiplier
  2.7,                                    !- Ceiling Height {m}
  129.6,                                  !- Volume {m3}
  ,                                       !- Floor Area {m2}
  ,                                       !- Zone Inside Convection Algorithm
  ,                                       !- Zone Outside Convection Algorithm
  ,                                       !- Zone Conditioning Equipment List Name
  {43af51bb-75d1-432f-bca2-f772159c24c9}, !- Zone Air Inlet Port List
  {8b7b1e87-c6b4-4d6f-9063-c356fad11b16}, !- Zone Air Exhaust Port List
  {6036be5d-fda1-4258-9f6d-d1182a0d10c7}, !- Zone Air Node Name
  {0084361d-8625-4ca5-9129-0599d234b8cc}, !- Zone Return Air Node Name
  ,                                       !- Primary Daylighting Control Name
  ,                                       !- Fraction of Zone Controlled by Primary Daylighting Control
  ,                                       !- Secondary Daylighting Control Name
  ,                                       !- Fraction of Zone Controlled by Secondary Daylighting Control
  ,                                       !- Illuminance Map Name
  ,                                       !- Group Rendering Name
  {8425f1e4-752d-4c8d-ade5-7e65d413ee2d}, !- Thermostat Name
  No,                                     !- Use Ideal Air Loads
  ;                                       !- Humidistat Name

OS:Node,
  {ae2f9f02-f723-461c-a1cd-3229bf8f22b6}, !- Handle
  Node 1,                                 !- Name
  {6036be5d-fda1-4258-9f6d-d1182a0d10c7}, !- Inlet Port
  ;                                       !- Outlet Port

OS:Connection,
  {6036be5d-fda1-4258-9f6d-d1182a0d10c7}, !- Handle
  {8397fe64-2bf2-4e00-afef-790f9c4e0294}, !- Name
  {1256c93c-2ece-41c7-ae47-e44e94bc81d0}, !- Source Object
  11,                                     !- Outlet Port
  {ae2f9f02-f723-461c-a1cd-3229bf8f22b6}, !- Target Object
  2;                                      !- Inlet Port

OS:PortList,
  {43af51bb-75d1-432f-bca2-f772159c24c9}, !- Handle
  Port List 1,                            !- Name
  {1256c93c-2ece-41c7-ae47-e44e94bc81d0}, !- HVAC Component
  {aaeaad8f-f67e-4806-81eb-25df2aa01a5d}; !- Port 1

OS:PortList,
  {8b7b1e87-c6b4-4d6f-9063-c356fad11b16}, !- Handle
  Port List 2,                            !- Name
  {1256c93c-2ece-41c7-ae47-e44e94bc81d0}; !- HVAC Component

OS:Sizing:Zone,
  {f3ff36ae-30f2-44ec-80e2-85e1179d357b}, !- Handle
  {1256c93c-2ece-41c7-ae47-e44e94bc81d0}, !- Zone or ZoneList Name
  SupplyAirTemperature,                   !- Zone Cooling Design Supply Air Temperature Input Method
  14,                                     !- Zone Cooling Design Supply Air Temperature {C}
  11.11,                                  !- Zone Cooling Design Supply Air Temperature Difference {deltaC}
  SupplyAirTemperature,                   !- Zone Heating Design Supply Air Temperature Input Method
  40,                                     !- Zone Heating Design Supply Air Temperature {C}
  11.11,                                  !- Zone Heating Design Supply Air Temperature Difference {deltaC}
  0.0085,                                 !- Zone Cooling Design Supply Air Humidity Ratio {kg-H2O/kg-air}
  0.008,                                  !- Zone Heating Design Supply Air Humidity Ratio {kg-H2O/kg-air}
  ,                                       !- Zone Heating Sizing Factor
  ,                                       !- Zone Cooling Sizing Factor
  DesignDay,                              !- Cooling Design Air Flow Method
  ,                                       !- Cooling Design Air Flow Rate {m3/s}
  ,                                       !- Cooling Minimum Air Flow per Zone Floor Area {m3/s-m2}
  ,                                       !- Cooling Minimum Air Flow {m3/s}
  ,                                       !- Cooling Minimum Air Flow Fraction
  DesignDay,                              !- Heating Design Air Flow Method
  ,                                       !- Heating Design Air Flow Rate {m3/s}
  ,                                       !- Heating Maximum Air Flow per Zone Floor Area {m3/s-m2}
  ,                                       !- Heating Maximum Air Flow {m3/s}
  ,                                       !- Heating Maximum Air Flow Fraction
  ,                                       !- Design Zone Air Distribution Effectiveness in Cooling Mode
  ,                                       !- Design Zone Air Distribution Effectiveness in Heating Mode
  No,                                     !- Account for Dedicated Outdoor Air System
  NeutralSupplyAir,                       !- Dedicated Outdoor Air System Control Strategy
  autosize,                               !- Dedicated Outdoor Air Low Setpoint Temperature for Design {C}
  autosize;                               !- Dedicated Outdoor Air High Setpoint Temperature for Design {C}

OS:ZoneHVAC:EquipmentList,
  {60acf18b-6a64-4d3b-b66d-39b90f6c0e59}, !- Handle
  Zone HVAC Equipment List 1,             !- Name
  {1256c93c-2ece-41c7-ae47-e44e94bc81d0}, !- Thermal Zone
  {55ce4449-bac4-47f6-84d3-0b52f35edf96}, !- Zone Equipment 1
  1,                                      !- Zone Equipment Cooling Sequence 1
  1;                                      !- Zone Equipment Heating or No-Load Sequence 1

OS:Space,
  {486da4a4-0915-462d-abcb-c11ffab465bd}, !- Handle
  ZONE ONE Space,                         !- Name
  ,                                       !- Space Type Name
  ,                                       !- Default Construction Set Name
  ,                                       !- Default Schedule Set Name
  0,                                      !- Direction of Relative North {deg}
  0,                                      !- X Origin {m}
  0,                                      !- Y Origin {m}
  0,                                      !- Z Origin {m}
  ,                                       !- Building Story Name
  {1256c93c-2ece-41c7-ae47-e44e94bc81d0}; !- Thermal Zone Name

OS:Surface,
  {7ce4ef50-6a61-489e-b5ff-696e4602fbc7}, !- Handle
  ZONE SURFACE FLOOR,                     !- Name
  Floor,                                  !- Surface Type
  {ac9efb8c-5721-4c58-990a-bfb0dd2888c5}, !- Construction Name
  {486da4a4-0915-462d-abcb-c11ffab465bd}, !- Space Name
  Outdoors,                               !- Outside Boundary Condition
  ,                                       !- Outside Boundary Condition Object
  SunExposed,                             !- Sun Exposure
  WindExposed,                            !- Wind Exposure
  0,                                      !- View Factor to Ground
  ,                                       !- Number of Vertices
  8, 6, 0,                                !- X,Y,Z Vertex 1 {m}
  8, 0, 0,                                !- X,Y,Z Vertex 2 {m}
  0, 0, 0,                                !- X,Y,Z Vertex 3 {m}
  0, 6, 0;                                !- X,Y,Z Vertex 4 {m}

OS:Construction,
  {ac9efb8c-5721-4c58-990a-bfb0dd2888c5}, !- Handle
  LTWALL,                                 !- Name
  ,                                       !- Surface Rendering Name
  {142bab18-2001-4cae-910b-54f5873220e5}, !- Layer 1
  {7eefd2bf-de2a-47a5-9493-9b8a6701dc6a}; !- Layer 2

OS:Material:NoMass,
  {142bab18-2001-4cae-910b-54f5873220e5}, !- Handle
  INSULATION-EXT,                         !- Name
  VerySmooth,                             !- Roughness
  50,                                     !- Thermal Resistance {m2-K/W}
  0.9,                                    !- Thermal Absorptance
  0.1,                                    !- Solar Absorptance
  0.1;                                    !- Visible Absorptance

OS:Material:NoMass,
  {7eefd2bf-de2a-47a5-9493-9b8a6701dc6a}, !- Handle
  INSULATION-INT,                         !- Name
  VerySmooth,                             !- Roughness
  50,                                     !- Thermal Resistance {m2-K/W}
  0.9,                                    !- Thermal Absorptance
  0.6,                                    !- Solar Absorptance
  0.6;                                    !- Visible Absorptance

OS:Surface,
  {70eed6e0-e455-4466-918f-a70941b987e4}, !- Handle
  ZONE SURFACE SOUTH,                     !- Name
  Wall,                                   !- Surface Type
  {ac9efb8c-5721-4c58-990a-bfb0dd2888c5}, !- Construction Name
  {486da4a4-0915-462d-abcb-c11ffab465bd}, !- Space Name
  Outdoors,                               !- Outside Boundary Condition
  ,                                       !- Outside Boundary Condition Object
  SunExposed,                             !- Sun Exposure
  WindExposed,                            !- Wind Exposure
  0.5,                                    !- View Factor to Ground
  ,                                       !- Number of Vertices
  0, 0, 2.7,                              !- X,Y,Z Vertex 1 {m}
  0, 0, 0,                                !- X,Y,Z Vertex 2 {m}
  8, 0, 0,                                !- X,Y,Z Vertex 3 {m}
  8, 0, 2.7;                              !- X,Y,Z Vertex 4 {m}

OS:Surface,
  {e0f262db-1957-4930-8708-21f3c2f5afd2}, !- Handle
  ZONE SURFACE WEST,                      !- Name
  Wall,                                   !- Surface Type
  {ac9efb8c-5721-4c58-990a-bfb0dd2888c5}, !- Construction Name
  {486da4a4-0915-462d-abcb-c11ffab465bd}, !- Space Name
  Outdoors,                               !- Outside Boundary Condition
  ,                                       !- Outside Boundary Condition Object
  SunExposed,                             !- Sun Exposure
  WindExposed,                            !- Wind Exposure
  0.5,                                    !- View Factor to Ground
  ,                                       !- Number of Vertices
  0, 6, 2.7,                              !- X,Y,Z Vertex 1 {m}
  0, 6, 0,                                !- X,Y,Z Vertex 2 {m}
  0, 0, 0,                                !- X,Y,Z Vertex 3 {m}
  0, 0, 2.7;                              !- X,Y,Z Vertex 4 {m}

OS:Surface,
  {a3e705d4-814c-40ef-928d-4ffdbbe8cc3b}, !- Handle
  ZONE SURFACE NORTH,                     !- Name
  Wall,                                   !- Surface Type
  {ac9efb8c-5721-4c58-990a-bfb0dd2888c5}, !- Construction Name
  {486da4a4-0915-462d-abcb-c11ffab465bd}, !- Space Name
  Outdoors,                               !- Outside Boundary Condition
  ,                                       !- Outside Boundary Condition Object
  SunExposed,                             !- Sun Exposure
  WindExposed,                            !- Wind Exposure
  0.5,                                    !- View Factor to Ground
  ,                                       !- Number of Vertices
  8, 6, 2.7,                              !- X,Y,Z Vertex 1 {m}
  8, 6, 0,                                !- X,Y,Z Vertex 2 {m}
  0, 6, 0,                                !- X,Y,Z Vertex 3 {m}
  0, 6, 2.7;                              !- X,Y,Z Vertex 4 {m}

OS:Surface,
  {56c5a440-43e6-42c3-96ec-e3a0c0eb14d1}, !- Handle
  ZONE SURFACE ROOF,                      !- Name
  RoofCeiling,                            !- Surface Type
  {ac9efb8c-5721-4c58-990a-bfb0dd2888c5}, !- Construction Name
  {486da4a4-0915-462d-abcb-c11ffab465bd}, !- Space Name
  Outdoors,                               !- Outside Boundary Condition
  ,                                       !- Outside Boundary Condition Object
  SunExposed,                             !- Sun Exposure
  WindExposed,                            !- Wind Exposure
  0,                                      !- View Factor to Ground
  ,                                       !- Number of Vertices
  8, 0, 2.7,                              !- X,Y,Z Vertex 1 {m}
  8, 6, 2.7,                              !- X,Y,Z Vertex 2 {m}
  0, 6, 2.7,                              !- X,Y,Z Vertex 3 {m}
  0, 0, 2.7;                              !- X,Y,Z Vertex 4 {m}

OS:Surface,
  {8bd72b62-276a-407b-8e18-ade684ee5cd2}, !- Handle
  ZONE SURFACE EAST,                      !- Name
  Wall,                                   !- Surface Type
  {ac9efb8c-5721-4c58-990a-bfb0dd2888c5}, !- Construction Name
  {486da4a4-0915-462d-abcb-c11ffab465bd}, !- Space Name
  Outdoors,                               !- Outside Boundary Condition
  ,                                       !- Outside Boundary Condition Object
  SunExposed,                             !- Sun Exposure
  WindExposed,                            !- Wind Exposure
  0.5,                                    !- View Factor to Ground
  ,                                       !- Number of Vertices
  8, 0, 2.7,                              !- X,Y,Z Vertex 1 {m}
  8, 0, 0,                                !- X,Y,Z Vertex 2 {m}
  8, 6, 0,                                !- X,Y,Z Vertex 3 {m}
  8, 6, 2.7;                              !- X,Y,Z Vertex 4 {m}

OS:OtherEquipment,
  {db4f1ce9-6a3f-4edd-a65a-f22b002f7345}, !- Handle
  CE_sens_generic_inst,                   !- Name
  {e7e47ef5-0923-4f9d-9838-2eb6cdf99e67}, !- Other Equipment Definition Name
  {486da4a4-0915-462d-abcb-c11ffab465bd}, !- Space or SpaceType Name
  {5071deb0-6317-4e43-a37b-0efb9b0863cb}; !- Schedule Name

OS:OtherEquipment:Definition,
  {e7e47ef5-0923-4f9d-9838-2eb6cdf99e67}, !- Handle
  CE_sens_generic,                        !- Name
  EquipmentLevel,                         !- Design Level Calculation Method
  5400,                                   !- Design Level {W}
  ,                                       !- Watts per Space Floor Area {W/m2}
  ;                                       !- Watts per Person {W/Person}

OS:Schedule:Ruleset,
  {5071deb0-6317-4e43-a37b-0efb9b0863cb}, !- Handle
  Always On Ruleset Fractional,           !- Name
  {56ce118a-fa31-4972-ade4-1056bb6d01c6}, !- Schedule Type Limits Name
  {173cfeda-54b2-410e-b482-21221ce548d9}; !- Default Day Schedule Name

OS:Schedule:Day,
  {173cfeda-54b2-410e-b482-21221ce548d9}, !- Handle
  Schedule Day 6,                         !- Name
  {56ce118a-fa31-4972-ade4-1056bb6d01c6}, !- Schedule Type Limits Name
  ,                                       !- Interpolate to Timestep
  24,                                     !- Hour 1
  0,                                      !- Minute 1
  1;                                      !- Value Until Time 1

OS:ScheduleTypeLimits,
  {56ce118a-fa31-4972-ade4-1056bb6d01c6}, !- Handle
  Fractional,                             !- Name
  0,                                      !- Lower Limit Value
  1,                                      !- Upper Limit Value
  Continuous;                             !- Numeric Type

OS:OtherEquipment,
  {f355a08c-34bc-4869-9d1b-8d8cd01dd60e}, !- Handle
  CE_lat_generic_inst,                    !- Name
  {7ad117e8-9125-45fa-94c7-ac38166ee96b}, !- Other Equipment Definition Name
  {486da4a4-0915-462d-abcb-c11ffab465bd}, !- Space or SpaceType Name
  {5071deb0-6317-4e43-a37b-0efb9b0863cb}; !- Schedule Name

OS:OtherEquipment:Definition,
  {7ad117e8-9125-45fa-94c7-ac38166ee96b}, !- Handle
  CE_lat_generic,                         !- Name
  EquipmentLevel,                         !- Design Level Calculation Method
  0,                                      !- Design Level {W}
  ,                                       !- Watts per Space Floor Area {W/m2}
  ,                                       !- Watts per Person {W/Person}
  1,                                      !- Fraction Latent
  0;                                      !- Fraction Radiant

OS:Schedule:Constant,
  {64a9c220-38eb-4c33-bdc7-8ff015def5b5}, !- Handle
  22.2 C,                                 !- Name
  {d8dd9058-3444-4f93-8562-0534190a1e2c}, !- Schedule Type Limits Name
  22.2;                                   !- Value

OS:Schedule:Ruleset,
  {b76540b4-877d-422e-94d4-f0d4e6fddba0}, !- Handle
  No Heating,                             !- Name
  {d8dd9058-3444-4f93-8562-0534190a1e2c}, !- Schedule Type Limits Name
  {34d5df37-1310-4551-8d94-fcabcc482db3}; !- Default Day Schedule Name

OS:ScheduleTypeLimits,
  {d8dd9058-3444-4f93-8562-0534190a1e2c}, !- Handle
  Temperature,                            !- Name
  ,                                       !- Lower Limit Value
  ,                                       !- Upper Limit Value
  Continuous,                             !- Numeric Type
  Temperature;                            !- Unit Type

OS:Schedule:Day,
  {34d5df37-1310-4551-8d94-fcabcc482db3}, !- Handle
  Schedule Day 2,                         !- Name
  {d8dd9058-3444-4f93-8562-0534190a1e2c}, !- Schedule Type Limits Name
  ,                                       !- Interpolate to Timestep
  24,                                     !- Hour 1
  0,                                      !- Minute 1
  -100;                                   !- Value Until Time 1

OS:ThermostatSetpoint:DualSetpoint,
  {8425f1e4-752d-4c8d-ade5-7e65d413ee2d}, !- Handle
  Thermostat Setpoint Dual Setpoint 1,    !- Name
  {b76540b4-877d-422e-94d4-f0d4e6fddba0}, !- Heating Setpoint Temperature Schedule Name
  {64a9c220-38eb-4c33-bdc7-8ff015def5b5}; !- Cooling Setpoint Temperature Schedule Name

OS:Schedule:Constant,
  {1880a9ee-c39e-49c9-8bdd-1a70a6e3fb0e}, !- Handle
  Always On Discrete,                     !- Name
  {1e85316f-7cf8-46a9-abff-8e12c7f178a5}, !- Schedule Type Limits Name
  1;                                      !- Value

OS:ScheduleTypeLimits,
  {1e85316f-7cf8-46a9-abff-8e12c7f178a5}, !- Handle
  OnOff,                                  !- Name
  0,                                      !- Lower Limit Value
  1,                                      !- Upper Limit Value
  Discrete,                               !- Numeric Type
  Availability;                           !- Unit Type

OS:AirLoopHVAC,
  {24377144-25c2-4a2b-9d52-f26920023af0}, !- Handle
  BESTEST CE air loop,                    !- Name
  ,                                       !- Controller List Name
  {1880a9ee-c39e-49c9-8bdd-1a70a6e3fb0e}, !- Availability Schedule
  ,                                       !- Availability Manager
  1.888,                                  !- Design Supply Air Flow Rate {m3/s}
  ,                                       !- Branch List Name
  ,                                       !- Connector List Name
  {8ecb873a-b908-41e2-a8e7-0bd746054657}, !- Supply Side Inlet Node Name
  {6e807ad1-7ac5-46be-ac87-7c8bea206793}, !- Demand Side Outlet Node Name
  {7c712017-790b-40eb-8caa-51d4d89c0a05}, !- Demand Side Inlet Node A
  {b82a9db5-21bd-4551-8c4a-aa1127b86906}, !- Supply Side Outlet Node A
  ,                                       !- Demand Side Inlet Node B
  ;                                       !- Supply Side Outlet Node B

OS:Node,
  {be954292-542d-492a-8201-b17c68b57972}, !- Handle
  Node 2,                                 !- Name
  {8ecb873a-b908-41e2-a8e7-0bd746054657}, !- Inlet Port
  {8bf88281-5953-4887-89c3-9f6e7916763d}; !- Outlet Port

OS:Node,
  {d652860d-55a6-44ea-8b8f-262750fd628e}, !- Handle
  Node 3,                                 !- Name
  {943f47da-c0c9-4ef0-986d-d24092914392}, !- Inlet Port
  {b82a9db5-21bd-4551-8c4a-aa1127b86906}; !- Outlet Port

OS:Connection,
  {8ecb873a-b908-41e2-a8e7-0bd746054657}, !- Handle
  {c090c1f9-9b16-4ffe-80cd-7f02ec0e1caa}, !- Name
  {24377144-25c2-4a2b-9d52-f26920023af0}, !- Source Object
  8,                                      !- Outlet Port
  {be954292-542d-492a-8201-b17c68b57972}, !- Target Object
  2;                                      !- Inlet Port

OS:Connection,
  {b82a9db5-21bd-4551-8c4a-aa1127b86906}, !- Handle
  {ebbd8d58-cd39-497e-921a-abcad3b4b87f}, !- Name
  {d652860d-55a6-44ea-8b8f-262750fd628e}, !- Source Object
  3,                                      !- Outlet Port
  {24377144-25c2-4a2b-9d52-f26920023af0}, !- Target Object
  11;                                     !- Inlet Port

OS:Node,
  {ec0014fc-a94b-491e-b288-6d237b64cd8d}, !- Handle
  Node 4,                                 !- Name
  {7c712017-790b-40eb-8caa-51d4d89c0a05}, !- Inlet Port
  {2f058aed-ca18-4f5e-a1ce-452e4a648180}; !- Outlet Port

OS:Node,
  {dd7ab06d-76e1-4f0e-903d-e4b884f7077a}, !- Handle
  Node 5,                                 !- Name
  {d113a9bf-e63a-44b7-8fbd-930b63deceb7}, !- Inlet Port
  {6e807ad1-7ac5-46be-ac87-7c8bea206793}; !- Outlet Port

OS:Node,
  {85f88139-19ae-405b-9d34-f1d55bb3afeb}, !- Handle
  Node 6,                                 !- Name
  {937b045b-adaa-44aa-823a-4ef902f346c2}, !- Inlet Port