
OS:Version,
  {7ba9d012-eb28-4f69-bdd2-23026360ea95}, !- Handle
  1.13.1;                                 !- Version Identifier

OS:Site,
  {bc874655-a927-4872-a278-1347186bb1d9}, !- Handle
  MIAMI_FL_USA,                           !- Name
  25.8,                                   !- Latitude {deg}
  -80.27,                                 !- Longitude {deg}
  -5,                                     !- Time Zone {hr}
  2,                                      !- Elevation {m}
  Country;                                !- Terrain

OS:YearDescription,
  {9116ce1c-534f-4b3a-9d15-2bb1a805c7e1}, !- Handle
  2008,                                   !- Calendar Year
  ,                                       !- Day of Week for Start Day
  ;                                       !- Is Leap Year

OS:ClimateZones,
  {dd268d6b-2da7-4abc-b8ad-35d0988c56cd}, !- Handle
  ,                                       !- Active Institution
  ,                                       !- Active Year
  ASHRAE,                                 !- Climate Zone Institution Name 1
  ANSI/ASHRAE Standard 169,               !- Climate Zone Document Name 1
  2006,                                   !- Climate Zone Document Year 1
  ,                                       !- Climate Zone Value 1
  CEC,                                    !- Climate Zone Institution Name 2
  California Climate Zone Descriptions,   !- Climate Zone Document Name 2
  1995,                                   !- Climate Zone Document Year 2
  ;                                       !- Climate Zone Value 2

OS:Facility,
  {01cd2b0a-8ee0-4ab6-a2fb-9f6c7d21094d}; !- Handle

OS:SimulationControl,
  {30e9303f-ed23-491c-b310-8ef7274e967f}, !- Handle
  ,                                       !- Do Zone Sizing Calculation
  ,                                       !- Do System Sizing Calculation
  ,                                       !- Do Plant Sizing Calculation
  No,                                     !- Run Simulation for Sizing Periods
  ,                                       !- Run Simulation for Weather File Run Periods
  ,                                       !- Loads Convergence Tolerance Value
  ,                                       !- Temperature Convergence Tolerance Value {deltaC}
  FullInteriorAndExterior,                !- Solar Distribution
  ,                                       !- Maximum Number of Warmup Days
  6;                                      !- Minimum Number of Warmup Days

OS:Sizing:Parameters,
  {c983733e-8a2d-428d-8380-a9c380f3d01c}, !- Handle
  1.25,                                   !- Heating Sizing Factor
  1.15;                                   !- Cooling Sizing Factor

OS:Timestep,
  {7a470c9d-4813-47b4-b276-325100b7b62f}, !- Handle
  4;                                      !- Number of Timesteps per Hour

OS:ShadowCalculation,
  {21696cf9-7a12-43bf-ac4c-50d1be8bf2fd}, !- Handle
  20,                                     !- Calculation Frequency
  15000;                                  !- Maximum Figures in Shadow Overlap Calculations

OS:HeatBalanceAlgorithm,
  {09f4a614-27ba-43a9-a0ac-4379e03c44e8}, !- Handle
  ConductionTransferFunction,             !- Algorithm
  200;                                    !- Surface Temperature Upper Limit {C}

OS:RunPeriod,
  {322b0b21-e55e-459f-b4f2-853d2d37fd9a}, !- Handle
  Run Period 1,                           !- Name
  1,                                      !- Begin Month
  1,                                      !- Begin Day of Month
  12,                                     !- End Month
  31,                                     !- End Day of Month
  ,                                       !- Use Weather File Holidays and Special Days
  ,                                       !- Use Weather File Daylight Saving Period
  ,                                       !- Apply Weekend Holiday Rule
  ,                                       !- Use Weather File Rain Indicators
  ,                                       !- Use Weather File Snow Indicators
  ;                                       !- Number of Times Runperiod to be Repeated

OS:LifeCycleCost:Parameters,
  {a8ce31c8-7533-4ad7-aa7a-5380b4197455}, !- Handle
  ,                                       !- Analysis Type
  ,                                       !- Discounting Convention
  ,                                       !- Inflation Approach
  ,                                       !- Real Discount Rate
  ,                                       !- Nominal Discount Rate
  ,                                       !- Inflation
  ,                                       !- Base Date Month
  ,                                       !- Base Date Year
  ,                                       !- Service Date Month
  ,                                       !- Service Date Year
  ;                                       !- Length of Study Period in Years

OS:SurfaceConvectionAlgorithm:Inside,
  {bc912a12-033a-4714-841a-e6089820710f}, !- Handle
  TARP;                                   !- Algorithm

OS:SurfaceConvectionAlgorithm:Outside,
  {5644ccc5-8f0b-40e3-89f5-e0b986713cd6}, !- Handle
  TARP;                                   !- Algorithm

OS:WeatherFile,
  {ebdf7953-2117-46f9-b101-c9363f247424}, !- Handle
  MIAMI,                                  !- City
  FL,                                     !- State Province Region
  USA,                                    !- Country
  TMY2-12839,                             !- Data Source
  722020,                                 !- WMO Number
  25.8,                                   !- Latitude {deg}
  -80.27,                                 !- Longitude {deg}
  -5,                                     !- Time Zone {hr}
  2,                                      !- Elevation {m}
  file:///Users/dgoldwas/Documents/GitHub/OSEP_BESTTEST/measures/bestest_space_cooling_equipment_performance_tests/resources/CE200ATM2.epw, !- Url
  53932B90;                               !- Checksum

OS:SizingPeriod:DesignDay,
  {bc37be56-b8a5-464f-bb0c-ad40509892af}, !- Handle
  Sizing Period Design Day 1,             !- Name
  23,                                     !- Maximum Dry-Bulb Temperature {C}
  0,                                      !- Daily Dry-Bulb Temperature Range {deltaC}
  23,                                     !- Humidity Indicating Conditions at Maximum Dry-Bulb
  31000,                                  !- Barometric Pressure {Pa}
  0,                                      !- Wind Speed {m/s}
  0,                                      !- Wind Direction {deg}
  0,                                      !- Sky Clearness
  ,                                       !- Rain Indicator
  0,                                      !- Snow Indicator
  1,                                      !- Day of Month
  1,                                      !- Month
  SummerDesignDay,                        !- Day Type
  0,                                      !- Daylight Saving Time Indicator
  WetBulb,                                !- Humidity Indicating Type
  ,                                       !- Humidity Indicating Day Schedule Name
  DefaultMultipliers,                     !- Dry-Bulb Temperature Range Modifier Type
  ,                                       !- Dry-Bulb Temperature Range Modifier Schedule Name
  AshraeClearSky;                         !- Solar Model Indicator

OS:SizingPeriod:DesignDay,
  {3eafc952-052e-410c-a8dc-9d6e5eda5542}, !- Handle
  Sizing Period Design Day 2,             !- Name
  23,                                     !- Maximum Dry-Bulb Temperature {C}
  0,                                      !- Daily Dry-Bulb Temperature Range {deltaC}
  23,                                     !- Humidity Indicating Conditions at Maximum Dry-Bulb
  31000,                                  !- Barometric Pressure {Pa}
  0,                                      !- Wind Speed {m/s}
  0,                                      !- Wind Direction {deg}
  0,                                      !- Sky Clearness
  ,                                       !- Rain Indicator
  0,                                      !- Snow Indicator
  1,                                      !- Day of Month
  1,                                      !- Month
  WinterDesignDay,                        !- Day Type
  0,                                      !- Daylight Saving Time Indicator
  WetBulb,                                !- Humidity Indicating Type
  ,                                       !- Humidity Indicating Day Schedule Name
  DefaultMultipliers,                     !- Dry-Bulb Temperature Range Modifier Type
  ,                                       !- Dry-Bulb Temperature Range Modifier Schedule Name
  AshraeClearSky;                         !- Solar Model Indicator

OS:Building,
  {9e3cf1ff-b0f2-415a-bdc8-c38d4456c457}, !- Handle
  BESTEST Case CE200 - Full-Load Test at AHRI Conditions, !- Name
  ,                                       !- Building Sector Type
  0,                                      !- North Axis {deg}
  ,                                       !- Nominal Floor to Floor Height {m}
  ,                                       !- Space Type Name
  ,                                       !- Default Construction Set Name
  ;                                       !- Default Schedule Set Name

OS:ThermalZone,
  {5bbbef99-1b29-4247-a08a-ec6805675724}, !- Handle
  ZONE ONE,                               !- Name
  1,                                      !- Multiplier
  2.7,                                    !- Ceiling Height {m}
  129.6,                                  !- Volume {m3}
  ,                                       !- Floor Area {m2}
  ,                                       !- Zone Inside Convection Algorithm
  ,                                       !- Zone Outside Convection Algorithm
  ,                                       !- Zone Conditioning Equipment List Name
  {c6826d4d-e16e-46b7-82e6-f55d3ae78df2}, !- Zone Air Inlet Port List
  {1360d837-5ed7-4796-9d65-80f6e1be0a1a}, !- Zone Air Exhaust Port List
  {44d756ef-549c-463f-afbd-dfaec0aee6d2}, !- Zone Air Node Name
  {b27b8294-f46a-445d-91ea-839757c54471}, !- Zone Return Air Node Name
  ,                                       !- Primary Daylighting Control Name
  ,                                       !- Fraction of Zone Controlled by Primary Daylighting Control
  ,                                       !- Secondary Daylighting Control Name
  ,                                       !- Fraction of Zone Controlled by Secondary Daylighting Control
  ,                                       !- Illuminance Map Name
  ,                                       !- Group Rendering Name
  {66e98fdb-2a84-445b-ba2f-c2eb0de26f35}, !- Thermostat Name
  No,                                     !- Use Ideal Air Loads
  ;                                       !- Humidistat Name

OS:Node,
  {5af3834f-a7ff-4214-8e10-c6474f1fcff0}, !- Handle
  Node 1,                                 !- Name
  {44d756ef-549c-463f-afbd-dfaec0aee6d2}, !- Inlet Port
  ;                                       !- Outlet Port

OS:Connection,
  {44d756ef-549c-463f-afbd-dfaec0aee6d2}, !- Handle
  {fa928da8-6346-49d2-80e9-59547758f721}, !- Name
  {5bbbef99-1b29-4247-a08a-ec6805675724}, !- Source Object
  11,                                     !- Outlet Port
  {5af3834f-a7ff-4214-8e10-c6474f1fcff0}, !- Target Object
  2;                                      !- Inlet Port

OS:PortList,
  {c6826d4d-e16e-46b7-82e6-f55d3ae78df2}, !- Handle
  Port List 1,                            !- Name
  {5bbbef99-1b29-4247-a08a-ec6805675724}, !- HVAC Component
  {6b5ea885-df54-4b5f-b5e1-ae5951f93c31}; !- Port 1

OS:PortList,
  {1360d837-5ed7-4796-9d65-80f6e1be0a1a}, !- Handle
  Port List 2,                            !- Name
  {5bbbef99-1b29-4247-a08a-ec6805675724}; !- HVAC Component

OS:Sizing:Zone,
  {0f9d9425-57a6-4a0d-bc5f-981bfb7d0720}, !- Handle
  {5bbbef99-1b29-4247-a08a-ec6805675724}, !- Zone or ZoneList Name
  SupplyAirTemperature,                   !- Zone Cooling Design Supply Air Temperature Input Method
  14,                                     !- Zone Cooling Design Supply Air Temperature {C}
  11.11,                                  !- Zone Cooling Design Supply Air Temperature Difference {deltaC}
  SupplyAirTemperature,                   !- Zone Heating Design Supply Air Temperature Input Method
  40,                                     !- Zone Heating Design Supply Air Temperature {C}
  11.11,                                  !- Zone Heating Design Supply Air Temperature Difference {deltaC}
  0.0085,                                 !- Zone Cooling Design Supply Air Humidity Ratio {kg-H2O/kg-air}
  0.008,                                  !- Zone Heating Design Supply Air Humidity Ratio {kg-H2O/kg-air}
  ,                                       !- Zone Heating Sizing Factor
  ,                                       !- Zone Cooling Sizing Factor
  DesignDay,                              !- Cooling Design Air Flow Method
  ,                                       !- Cooling Design Air Flow Rate {m3/s}
  ,                                       !- Cooling Minimum Air Flow per Zone Floor Area {m3/s-m2}
  ,                                       !- Cooling Minimum Air Flow {m3/s}
  ,                                       !- Cooling Minimum Air Flow Fraction
  DesignDay,                              !- Heating Design Air Flow Method
  ,                                       !- Heating Design Air Flow Rate {m3/s}
  ,                                       !- Heating Maximum Air Flow per Zone Floor Area {m3/s-m2}
  ,                                       !- Heating Maximum Air Flow {m3/s}
  ,                                       !- Heating Maximum Air Flow Fraction
  ,                                       !- Design Zone Air Distribution Effectiveness in Cooling Mode
  ,                                       !- Design Zone Air Distribution Effectiveness in Heating Mode
  No,                                     !- Account for Dedicated Outdoor Air System
  NeutralSupplyAir,                       !- Dedicated Outdoor Air System Control Strategy
  autosize,                               !- Dedicated Outdoor Air Low Setpoint Temperature for Design {C}
  autosize;                               !- Dedicated Outdoor Air High Setpoint Temperature for Design {C}

OS:ZoneHVAC:EquipmentList,
  {21140b4c-b49c-4da1-8810-2dbdfe19ed95}, !- Handle
  Zone HVAC Equipment List 1,             !- Name
  {5bbbef99-1b29-4247-a08a-ec6805675724}, !- Thermal Zone
  {5b22db8e-3beb-483e-9fc5-797f8c88de5e}, !- Zone Equipment 1
  1,                                      !- Zone Equipment Cooling Sequence 1
  1;                                      !- Zone Equipment Heating or No-Load Sequence 1

OS:Space,
  {9967ce10-b7eb-4eb8-99d5-12ef0d1046cb}, !- Handle
  ZONE ONE Space,                         !- Name
  ,                                       !- Space Type Name
  ,                                       !- Default Construction Set Name
  ,                                       !- Default Schedule Set Name
  0,                                      !- Direction of Relative North {deg}
  0,                                      !- X Origin {m}
  0,                                      !- Y Origin {m}
  0,                                      !- Z Origin {m}
  ,                                       !- Building Story Name
  {5bbbef99-1b29-4247-a08a-ec6805675724}; !- Thermal Zone Name

OS:Surface,
  {4ad4b0b4-e832-4a27-806c-7b27abae2bbe}, !- Handle
  ZONE SURFACE FLOOR,                     !- Name
  Floor,                                  !- Surface Type
  {bb2df6da-de29-4da4-9665-da2b062fb7de}, !- Construction Name
  {9967ce10-b7eb-4eb8-99d5-12ef0d1046cb}, !- Space Name
  Outdoors,                               !- Outside Boundary Condition
  ,                                       !- Outside Boundary Condition Object
  SunExposed,                             !- Sun Exposure
  WindExposed,                            !- Wind Exposure
  0,                                      !- View Factor to Ground
  ,                                       !- Number of Vertices
  8, 6, 0,                                !- X,Y,Z Vertex 1 {m}
  8, 0, 0,                                !- X,Y,Z Vertex 2 {m}
  0, 0, 0,                                !- X,Y,Z Vertex 3 {m}
  0, 6, 0;                                !- X,Y,Z Vertex 4 {m}

OS:Construction,
  {bb2df6da-de29-4da4-9665-da2b062fb7de}, !- Handle
  LTWALL,                                 !- Name
  ,                                       !- Surface Rendering Name
  {fcb614ea-a651-41c3-a231-d6dfb43ac0e4}, !- Layer 1
  {c92f80a5-3aa8-47a1-84a9-a7bd3fea0576}; !- Layer 2

OS:Material:NoMass,
  {fcb614ea-a651-41c3-a231-d6dfb43ac0e4}, !- Handle
  INSULATION-EXT,                         !- Name
  VerySmooth,                             !- Roughness
  50,                                     !- Thermal Resistance {m2-K/W}
  0.9,                                    !- Thermal Absorptance
  0.1,                                    !- Solar Absorptance
  0.1;                                    !- Visible Absorptance

OS:Material:NoMass,
  {c92f80a5-3aa8-47a1-84a9-a7bd3fea0576}, !- Handle
  INSULATION-INT,                         !- Name
  VerySmooth,                             !- Roughness
  50,                                     !- Thermal Resistance {m2-K/W}
  0.9,                                    !- Thermal Absorptance
  0.6,                                    !- Solar Absorptance
  0.6;                                    !- Visible Absorptance

OS:Surface,
  {c0c99954-e50f-4a7e-b69d-1c7543f6e251}, !- Handle
  ZONE SURFACE SOUTH,                     !- Name
  Wall,                                   !- Surface Type
  {bb2df6da-de29-4da4-9665-da2b062fb7de}, !- Construction Name
  {9967ce10-b7eb-4eb8-99d5-12ef0d1046cb}, !- Space Name
  Outdoors,                               !- Outside Boundary Condition
  ,                                       !- Outside Boundary Condition Object
  SunExposed,                             !- Sun Exposure
  WindExposed,                            !- Wind Exposure
  0.5,                                    !- View Factor to Ground
  ,                                       !- Number of Vertices
  0, 0, 2.7,                              !- X,Y,Z Vertex 1 {m}
  0, 0, 0,                                !- X,Y,Z Vertex 2 {m}
  8, 0, 0,                                !- X,Y,Z Vertex 3 {m}
  8, 0, 2.7;                              !- X,Y,Z Vertex 4 {m}

OS:Surface,
  {cb2b25de-f453-4a47-91c3-77bbc8fad2b4}, !- Handle
  ZONE SURFACE WEST,                      !- Name
  Wall,                                   !- Surface Type
  {bb2df6da-de29-4da4-9665-da2b062fb7de}, !- Construction Name
  {9967ce10-b7eb-4eb8-99d5-12ef0d1046cb}, !- Space Name
  Outdoors,                               !- Outside Boundary Condition
  ,                                       !- Outside Boundary Condition Object
  SunExposed,                             !- Sun Exposure
  WindExposed,                            !- Wind Exposure
  0.5,                                    !- View Factor to Ground
  ,                                       !- Number of Vertices
  0, 6, 2.7,                              !- X,Y,Z Vertex 1 {m}
  0, 6, 0,                                !- X,Y,Z Vertex 2 {m}
  0, 0, 0,                                !- X,Y,Z Vertex 3 {m}
  0, 0, 2.7;                              !- X,Y,Z Vertex 4 {m}

OS:Surface,
  {1dfb8a05-758b-4d63-beb3-a35ec07882d0}, !- Handle
  ZONE SURFACE NORTH,                     !- Name
  Wall,                                   !- Surface Type
  {bb2df6da-de29-4da4-9665-da2b062fb7de}, !- Construction Name
  {9967ce10-b7eb-4eb8-99d5-12ef0d1046cb}, !- Space Name
  Outdoors,                               !- Outside Boundary Condition
  ,                                       !- Outside Boundary Condition Object
  SunExposed,                             !- Sun Exposure
  WindExposed,                            !- Wind Exposure
  0.5,                                    !- View Factor to Ground
  ,                                       !- Number of Vertices
  8, 6, 2.7,                              !- X,Y,Z Vertex 1 {m}
  8, 6, 0,                                !- X,Y,Z Vertex 2 {m}
  0, 6, 0,                                !- X,Y,Z Vertex 3 {m}
  0, 6, 2.7;                              !- X,Y,Z Vertex 4 {m}

OS:Surface,
  {10790923-7d24-4b31-afde-7d3bcca1e15d}, !- Handle
  ZONE SURFACE ROOF,                      !- Name
  RoofCeiling,                            !- Surface Type
  {bb2df6da-de29-4da4-9665-da2b062fb7de}, !- Construction Name
  {9967ce10-b7eb-4eb8-99d5-12ef0d1046cb}, !- Space Name
  Outdoors,                               !- Outside Boundary Condition
  ,                                       !- Outside Boundary Condition Object
  SunExposed,                             !- Sun Exposure
  WindExposed,                            !- Wind Exposure
  0,                                      !- View Factor to Ground
  ,                                       !- Number of Vertices
  8, 0, 2.7,                              !- X,Y,Z Vertex 1 {m}
  8, 6, 2.7,                              !- X,Y,Z Vertex 2 {m}
  0, 6, 2.7,                              !- X,Y,Z Vertex 3 {m}
  0, 0, 2.7;                              !- X,Y,Z Vertex 4 {m}

OS:Surface,
  {c696067f-b006-49bf-8376-54ac763216d7}, !- Handle
  ZONE SURFACE EAST,                      !- Name
  Wall,                                   !- Surface Type
  {bb2df6da-de29-4da4-9665-da2b062fb7de}, !- Construction Name
  {9967ce10-b7eb-4eb8-99d5-12ef0d1046cb}, !- Space Name
  Outdoors,                               !- Outside Boundary Condition
  ,                                       !- Outside Boundary Condition Object
  SunExposed,                             !- Sun Exposure
  WindExposed,                            !- Wind Exposure
  0.5,                                    !- View Factor to Ground
  ,                                       !- Number of Vertices
  8, 0, 2.7,                              !- X,Y,Z Vertex 1 {m}
  8, 0, 0,                                !- X,Y,Z Vertex 2 {m}
  8, 6, 0,                                !- X,Y,Z Vertex 3 {m}
  8, 6, 2.7;                              !- X,Y,Z Vertex 4 {m}

OS:OtherEquipment,
  {c44a1d8d-93c2-4349-a48d-0bcc5a26652e}, !- Handle
  CE_sens_generic_inst,                   !- Name
  {ee590332-04d0-4d31-9902-256f6b34d33e}, !- Other Equipment Definition Name
  {9967ce10-b7eb-4eb8-99d5-12ef0d1046cb}, !- Space or SpaceType Name
  {9a3717d9-fe84-4869-80ab-bf5a384aaaf4}; !- Schedule Name

OS:OtherEquipment:Definition,
  {ee590332-04d0-4d31-9902-256f6b34d33e}, !- Handle
  CE_sens_generic,                        !- Name
  EquipmentLevel,                         !- Design Level Calculation Method
  6120,                                   !- Design Level {W}
  ,                                       !- Watts per Space Floor Area {W/m2}
  ;                                       !- Watts per Person {W/Person}

OS:Schedule:Ruleset,
  {9a3717d9-fe84-4869-80ab-bf5a384aaaf4}, !- Handle
  Always On Ruleset Fractional,           !- Name
  {2de7fd23-7f7d-41c7-a615-555a2df12f39}, !- Schedule Type Limits Name
  {25437d93-12e7-449c-94dd-6f6abab872d7}; !- Default Day Schedule Name

OS:Schedule:Day,
  {25437d93-12e7-449c-94dd-6f6abab872d7}, !- Handle
  Schedule Day 6,                         !- Name
  {2de7fd23-7f7d-41c7-a615-555a2df12f39}, !- Schedule Type Limits Name
  ,                                       !- Interpolate to Timestep
  24,                                     !- Hour 1
  0,                                      !- Minute 1
  1;                                      !- Value Until Time 1

OS:ScheduleTypeLimits,
  {2de7fd23-7f7d-41c7-a615-555a2df12f39}, !- Handle
  Fractional,                             !- Name
  0,                                      !- Lower Limit Value
  1,                                      !- Upper Limit Value
  Continuous;                             !- Numeric Type

OS:OtherEquipment,
  {73ece735-fa8e-43d3-a56f-488f51cf3db8}, !- Handle
  CE_lat_generic_inst,                    !- Name
  {703cf301-dd8f-4763-88f8-0b8f67ba4ab8}, !- Other Equipment Definition Name
  {9967ce10-b7eb-4eb8-99d5-12ef0d1046cb}, !- Space or SpaceType Name
  {9a3717d9-fe84-4869-80ab-bf5a384aaaf4}; !- Schedule Name

OS:OtherEquipment:Definition,
  {703cf301-dd8f-4763-88f8-0b8f67ba4ab8}, !- Handle
  CE_lat_generic,                         !- Name
  EquipmentLevel,                         !- Design Level Calculation Method
  1817,                                   !- Design Level {W}
  ,                                       !- Watts per Space Floor Area {W/m2}
  ,                                       !- Watts per Person {W/Person}
  1,                                      !- Fraction Latent
  0;                                      !- Fraction Radiant

OS:Schedule:Constant,
  {cb577c29-22c6-43b0-93d5-e2e570e94de0}, !- Handle
  26.7 C,                                 !- Name
  {431479ee-e38a-44e7-9dfd-079d9cf9ee34}, !- Schedule Type Limits Name
  26.7;                                   !- Value

OS:Schedule:Ruleset,
  {05c85903-03f6-4a8d-a463-5a2224ec8621}, !- Handle
  No Heating,                             !- Name
  {431479ee-e38a-44e7-9dfd-079d9cf9ee34}, !- Schedule Type Limits Name
  {0dfc62b3-dc2c-42d0-a742-3cd7038119c5}; !- Default Day Schedule Name

OS:ScheduleTypeLimits,
  {431479ee-e38a-44e7-9dfd-079d9cf9ee34}, !- Handle
  Temperature,                            !- Name
  ,                                       !- Lower Limit Value
  ,                                       !- Upper Limit Value
  Continuous,                             !- Numeric Type
  Temperature;                            !- Unit Type

OS:Schedule:Day,
  {0dfc62b3-dc2c-42d0-a742-3cd7038119c5}, !- Handle
  Schedule Day 2,                         !- Name
  {431479ee-e38a-44e7-9dfd-079d9cf9ee34}, !- Schedule Type Limits Name
  ,                                       !- Interpolate to Timestep
  24,                                     !- Hour 1
  0,                                      !- Minute 1
  -100;                                   !- Value Until Time 1

OS:ThermostatSetpoint:DualSetpoint,
  {66e98fdb-2a84-445b-ba2f-c2eb0de26f35}, !- Handle
  Thermostat Setpoint Dual Setpoint 1,    !- Name
  {05c85903-03f6-4a8d-a463-5a2224ec8621}, !- Heating Setpoint Temperature Schedule Name
  {cb577c29-22c6-43b0-93d5-e2e570e94de0}; !- Cooling Setpoint Temperature Schedule Name

OS:Schedule:Constant,
  {c42c5f7a-1c4c-43e5-9104-40fd33c22184}, !- Handle
  Always On Discrete,                     !- Name
  {3253f308-5bff-4559-aa0c-655c901985e3}, !- Schedule Type Limits Name
  1;                                      !- Value

OS:ScheduleTypeLimits,
  {3253f308-5bff-4559-aa0c-655c901985e3}, !- Handle
  OnOff,                                  !- Name
  0,                                      !- Lower Limit Value
  1,                                      !- Upper Limit Value
  Discrete,                               !- Numeric Type
  Availability;                           !- Unit Type

OS:AirLoopHVAC,
  {fac0ee8e-6753-48d8-865a-bbb7a28ff393}, !- Handle
  BESTEST CE air loop,                    !- Name
  ,                                       !- Controller List Name
  {c42c5f7a-1c4c-43e5-9104-40fd33c22184}, !- Availability Schedule
  ,                                       !- Availability Manager
  1.888,                                  !- Design Supply Air Flow Rate {m3/s}
  ,                                       !- Branch List Name
  ,                                       !- Connector List Name
  {04c03531-394b-4504-8554-5dc09b64c6a2}, !- Supply Side Inlet Node Name
  {072895e6-617d-4b61-bb56-606ffc34879a}, !- Demand Side Outlet Node Name
  {33c1e733-6ee4-45a2-9337-66ff9b7c3f4a}, !- Demand Side Inlet Node A
  {0798a741-ebeb-4d11-99ee-f4840eefa008}, !- Supply Side Outlet Node A
  ,                                       !- Demand Side Inlet Node B
  ;                                       !- Supply Side Outlet Node B

OS:Node,
  {d4fc3e16-f02f-4033-9af4-6a0caa5d598e}, !- Handle
  Node 2,                                 !- Name
  {04c03531-394b-4504-8554-5dc09b64c6a2}, !- Inlet Port
  {a3306c97-8b32-4d10-89e5-6049c7f05b45}; !- Outlet Port

OS:Node,
  {e8c8895a-95fa-4c62-a876-66310d5a93b1}, !- Handle
  Node 3,                                 !- Name
  {742e892c-461d-4f04-aa7a-2c32c1b16dcc}, !- Inlet Port
  {0798a741-ebeb-4d11-99ee-f4840eefa008}; !- Outlet Port

OS:Connection,
  {04c03531-394b-4504-8554-5dc09b64c6a2}, !- Handle
  {db375e27-f4ea-4512-8a7e-36aada1d8652}, !- Name
  {fac0ee8e-6753-48d8-865a-bbb7a28ff393}, !- Source Object
  8,                                      !- Outlet Port
  {d4fc3e16-f02f-4033-9af4-6a0caa5d598e}, !- Target Object
  2;                                      !- Inlet Port

OS:Connection,
  {0798a741-ebeb-4d11-99ee-f4840eefa008}, !- Handle
  {2a8e791d-14b8-48c2-9974-5b39a4987857}, !- Name
  {e8c8895a-95fa-4c62-a876-66310d5a93b1}, !- Source Object
  3,                                      !- Outlet Port
  {fac0ee8e-6753-48d8-865a-bbb7a28ff393}, !- Target Object
  11;                                     !- Inlet Port

OS:Node,
  {43fd8364-6d6b-40e4-b633-02d3ff2cae05}, !- Handle
  Node 4,                                 !- Name
  {33c1e733-6ee4-45a2-9337-66ff9b7c3f4a}, !- Inlet Port
  {627620d4-e2a8-4c61-95f8-2410cb046d46}; !- Outlet Port

OS:Node,
  {069ee426-a315-4aa5-8215-4b63708557e3}, !- Handle
  Node 5,                                 !- Name
  {df64d86a-8ea6-4895-ae70-1fa58e1ff803}, !- Inlet Port
  {072895e6-617d-4b61-bb56-606ffc34879a}; !- Outlet Port

OS:Node,
  {5fd37d1b-ed16-48c2-96d1-733f55c7c194}, !- Handle
  Node 6,                                 !- Name
  {25abe4ec-fdfb-49e7-8166-f860d6af301c}, !- Inlet Port