
OS:Version,
  {ebe9b1b5-a171-400c-820f-a89f65b4d3f6}, !- Handle
  1.12.1;                                 !- Version Identifier

OS:Site,
  {bc874655-a927-4872-a278-1347186bb1d9}, !- Handle
  MIAMI_FL_USA,                           !- Name
  25.8,                                   !- Latitude {deg}
  -80.27,                                 !- Longitude {deg}
  -5,                                     !- Time Zone {hr}
  2,                                      !- Elevation {m}
  Country;                                !- Terrain

OS:YearDescription,
  {9116ce1c-534f-4b3a-9d15-2bb1a805c7e1}, !- Handle
  2008,                                   !- Calendar Year
  ,                                       !- Day of Week for Start Day
  ;                                       !- Is Leap Year

OS:ClimateZones,
  {dd268d6b-2da7-4abc-b8ad-35d0988c56cd}, !- Handle
  ,                                       !- Active Institution
  ,                                       !- Active Year
  ASHRAE,                                 !- Climate Zone Institution Name 1
  ANSI/ASHRAE Standard 169,               !- Climate Zone Document Name 1
  2006,                                   !- Climate Zone Document Year 1
  ,                                       !- Climate Zone Value 1
  CEC,                                    !- Climate Zone Institution Name 2
  California Climate Zone Descriptions,   !- Climate Zone Document Name 2
  1995,                                   !- Climate Zone Document Year 2
  ;                                       !- Climate Zone Value 2

OS:Facility,
  {01cd2b0a-8ee0-4ab6-a2fb-9f6c7d21094d}; !- Handle

OS:SimulationControl,
  {30e9303f-ed23-491c-b310-8ef7274e967f}, !- Handle
  ,                                       !- Do Zone Sizing Calculation
  ,                                       !- Do System Sizing Calculation
  ,                                       !- Do Plant Sizing Calculation
  No,                                     !- Run Simulation for Sizing Periods
  ,                                       !- Run Simulation for Weather File Run Periods
  ,                                       !- Loads Convergence Tolerance Value
  ,                                       !- Temperature Convergence Tolerance Value {deltaC}
  FullInteriorAndExterior,                !- Solar Distribution
  ,                                       !- Maximum Number of Warmup Days
  6;                                      !- Minimum Number of Warmup Days

OS:Sizing:Parameters,
  {c983733e-8a2d-428d-8380-a9c380f3d01c}, !- Handle
  1.25,                                   !- Heating Sizing Factor
  1.15;                                   !- Cooling Sizing Factor

OS:Timestep,
  {7a470c9d-4813-47b4-b276-325100b7b62f}, !- Handle
  6;                                      !- Number of Timesteps per Hour

OS:ShadowCalculation,
  {21696cf9-7a12-43bf-ac4c-50d1be8bf2fd}, !- Handle
  20,                                     !- Calculation Frequency
  15000;                                  !- Maximum Figures in Shadow Overlap Calculations

OS:HeatBalanceAlgorithm,
  {09f4a614-27ba-43a9-a0ac-4379e03c44e8}, !- Handle
  ConductionTransferFunction,             !- Algorithm
  200;                                    !- Surface Temperature Upper Limit {C}

OS:RunPeriod,
  {322b0b21-e55e-459f-b4f2-853d2d37fd9a}, !- Handle
  Run Period 1,                           !- Name
  1,                                      !- Begin Month
  1,                                      !- Begin Day of Month
  12,                                     !- End Month
  31,                                     !- End Day of Month
  ,                                       !- Use Weather File Holidays and Special Days
  ,                                       !- Use Weather File Daylight Saving Period
  ,                                       !- Apply Weekend Holiday Rule
  ,                                       !- Use Weather File Rain Indicators
  ,                                       !- Use Weather File Snow Indicators
  ;                                       !- Number of Times Runperiod to be Repeated

OS:LifeCycleCost:Parameters,
  {a8ce31c8-7533-4ad7-aa7a-5380b4197455}, !- Handle
  ,                                       !- Analysis Type
  ,                                       !- Discounting Convention
  ,                                       !- Inflation Approach
  ,                                       !- Real Discount Rate
  ,                                       !- Nominal Discount Rate
  ,                                       !- Inflation
  ,                                       !- Base Date Month
  ,                                       !- Base Date Year
  ,                                       !- Service Date Month
  ,                                       !- Service Date Year
  ;                                       !- Length of Study Period in Years

OS:SurfaceConvectionAlgorithm:Inside,
  {c18833d7-3d3b-4ead-bbb7-b2adaba866be}, !- Handle
  TARP;                                   !- Algorithm

OS:SurfaceConvectionAlgorithm:Outside,
  {11cb4b5a-d6d4-40de-be08-c2d1a6e04c24}, !- Handle
  TARP;                                   !- Algorithm

OS:WeatherFile,
  {4f9b2489-ad0a-40af-a9c2-21cd7f46e04d}, !- Handle
  MIAMI,                                  !- City
  FL,                                     !- State Province Region
  USA,                                    !- Country
  TMY2-12839,                             !- Data Source
  722020,                                 !- WMO Number
  25.8,                                   !- Latitude {deg}
  -80.27,                                 !- Longitude {deg}
  -5,                                     !- Time Zone {hr}
  2,                                      !- Elevation {m}
  file:///Users/dgoldwas/Documents/GitHub/OSEP_BESTTEST/measures/bestest_space_cooling_equipment_performance_tests/resources/CE200ATM2.epw, !- Url
  53932B90;                               !- Checksum

OS:SizingPeriod:DesignDay,
  {b7d2abb5-8559-404a-8509-cfebde164e16}, !- Handle
  Sizing Period Design Day 1,             !- Name
  23,                                     !- Maximum Dry-Bulb Temperature {C}
  0,                                      !- Daily Dry-Bulb Temperature Range {deltaC}
  23,                                     !- Humidity Indicating Conditions at Maximum Dry-Bulb
  31000,                                  !- Barometric Pressure {Pa}
  0,                                      !- Wind Speed {m/s}
  0,                                      !- Wind Direction {deg}
  0,                                      !- Sky Clearness
  ,                                       !- Rain Indicator
  0,                                      !- Snow Indicator
  1,                                      !- Day of Month
  1,                                      !- Month
  SummerDesignDay,                        !- Day Type
  0,                                      !- Daylight Saving Time Indicator
  WetBulb,                                !- Humidity Indicating Type
  ,                                       !- Humidity Indicating Day Schedule Name
  DefaultMultipliers,                     !- Dry-Bulb Temperature Range Modifier Type
  ,                                       !- Dry-Bulb Temperature Range Modifier Schedule Name
  AshraeClearSky;                         !- Solar Model Indicator

OS:SizingPeriod:DesignDay,
  {383bad4b-2e1c-46c0-970b-cea9c0dc34cd}, !- Handle
  Sizing Period Design Day 2,             !- Name
  23,                                     !- Maximum Dry-Bulb Temperature {C}
  0,                                      !- Daily Dry-Bulb Temperature Range {deltaC}
  23,                                     !- Humidity Indicating Conditions at Maximum Dry-Bulb
  31000,                                  !- Barometric Pressure {Pa}
  0,                                      !- Wind Speed {m/s}
  0,                                      !- Wind Direction {deg}
  0,                                      !- Sky Clearness
  ,                                       !- Rain Indicator
  0,                                      !- Snow Indicator
  1,                                      !- Day of Month
  1,                                      !- Month
  WinterDesignDay,                        !- Day Type
  0,                                      !- Daylight Saving Time Indicator
  WetBulb,                                !- Humidity Indicating Type
  ,                                       !- Humidity Indicating Day Schedule Name
  DefaultMultipliers,                     !- Dry-Bulb Temperature Range Modifier Type
  ,                                       !- Dry-Bulb Temperature Range Modifier Schedule Name
  AshraeClearSky;                         !- Solar Model Indicator

OS:Building,
  {101a02a5-f494-4d2e-81c8-eae7e8e8919c}, !- Handle
  BESTEST Case CE200 - Full-Load Test at AHRI Conditions, !- Name
  ,                                       !- Building Sector Type
  0,                                      !- North Axis {deg}
  ,                                       !- Nominal Floor to Floor Height {m}
  ,                                       !- Space Type Name
  ,                                       !- Default Construction Set Name
  ;                                       !- Default Schedule Set Name

OS:ThermalZone,
  {a3a83a56-2141-43d9-9681-f9991dc22113}, !- Handle
  ZONE ONE,                               !- Name
  1,                                      !- Multiplier
  2.7,                                    !- Ceiling Height {m}
  129.6,                                  !- Volume {m3}
  ,                                       !- Floor Area {m2}
  ,                                       !- Zone Inside Convection Algorithm
  ,                                       !- Zone Outside Convection Algorithm
  ,                                       !- Zone Conditioning Equipment List Name
  {932d78f7-897f-4cd5-8c51-0090c1ba2911}, !- Zone Air Inlet Port List
  {00f85afa-fff6-4987-a774-83ffa9cfd1cc}, !- Zone Air Exhaust Port List
  {20e0d262-a6f4-436e-a9a8-db76cbd31c89}, !- Zone Air Node Name
  {1a6c21b9-053a-4244-b9a6-e22cafa4a1fd}, !- Zone Return Air Node Name
  ,                                       !- Primary Daylighting Control Name
  ,                                       !- Fraction of Zone Controlled by Primary Daylighting Control
  ,                                       !- Secondary Daylighting Control Name
  ,                                       !- Fraction of Zone Controlled by Secondary Daylighting Control
  ,                                       !- Illuminance Map Name
  ,                                       !- Group Rendering Name
  {408e5284-43a4-4ccc-a1f4-b16e8b346c57}, !- Thermostat Name
  No,                                     !- Use Ideal Air Loads
  ;                                       !- Humidistat Name

OS:Node,
  {28faf402-0253-4aee-8050-164ede738828}, !- Handle
  Node 1,                                 !- Name
  {20e0d262-a6f4-436e-a9a8-db76cbd31c89}, !- Inlet Port
  ;                                       !- Outlet Port

OS:Connection,
  {20e0d262-a6f4-436e-a9a8-db76cbd31c89}, !- Handle
  {0f4d8396-a6fa-40f7-a5da-0c1a30830918}, !- Name
  {a3a83a56-2141-43d9-9681-f9991dc22113}, !- Source Object
  11,                                     !- Outlet Port
  {28faf402-0253-4aee-8050-164ede738828}, !- Target Object
  2;                                      !- Inlet Port

OS:PortList,
  {932d78f7-897f-4cd5-8c51-0090c1ba2911}, !- Handle
  Port List 1,                            !- Name
  {a3a83a56-2141-43d9-9681-f9991dc22113}, !- HVAC Component
  {e8522aba-58a0-4f03-8f06-29c2c0eb001d}; !- Port 1

OS:PortList,
  {00f85afa-fff6-4987-a774-83ffa9cfd1cc}, !- Handle
  Port List 2,                            !- Name
  {a3a83a56-2141-43d9-9681-f9991dc22113}; !- HVAC Component

OS:Sizing:Zone,
  {d1627471-fdac-4c4e-ae7b-365703fe1686}, !- Handle
  {a3a83a56-2141-43d9-9681-f9991dc22113}, !- Zone or ZoneList Name
  SupplyAirTemperature,                   !- Zone Cooling Design Supply Air Temperature Input Method
  14,                                     !- Zone Cooling Design Supply Air Temperature {C}
  11.11,                                  !- Zone Cooling Design Supply Air Temperature Difference {deltaC}
  SupplyAirTemperature,                   !- Zone Heating Design Supply Air Temperature Input Method
  40,                                     !- Zone Heating Design Supply Air Temperature {C}
  11.11,                                  !- Zone Heating Design Supply Air Temperature Difference {deltaC}
  0.0085,                                 !- Zone Cooling Design Supply Air Humidity Ratio {kg-H2O/kg-air}
  0.008,                                  !- Zone Heating Design Supply Air Humidity Ratio {kg-H2O/kg-air}
  ,                                       !- Zone Heating Sizing Factor
  ,                                       !- Zone Cooling Sizing Factor
  DesignDay,                              !- Cooling Design Air Flow Method
  ,                                       !- Cooling Design Air Flow Rate {m3/s}
  ,                                       !- Cooling Minimum Air Flow per Zone Floor Area {m3/s-m2}
  ,                                       !- Cooling Minimum Air Flow {m3/s}
  ,                                       !- Cooling Minimum Air Flow Fraction
  DesignDay,                              !- Heating Design Air Flow Method
  ,                                       !- Heating Design Air Flow Rate {m3/s}
  ,                                       !- Heating Maximum Air Flow per Zone Floor Area {m3/s-m2}
  ,                                       !- Heating Maximum Air Flow {m3/s}
  ,                                       !- Heating Maximum Air Flow Fraction
  ,                                       !- Design Zone Air Distribution Effectiveness in Cooling Mode
  ,                                       !- Design Zone Air Distribution Effectiveness in Heating Mode
  No,                                     !- Account for Dedicated Outdoor Air System
  NeutralSupplyAir,                       !- Dedicated Outdoor Air System Control Strategy
  autosize,                               !- Dedicated Outdoor Air Low Setpoint Temperature for Design {C}
  autosize;                               !- Dedicated Outdoor Air High Setpoint Temperature for Design {C}

OS:ZoneHVAC:EquipmentList,
  {c34dfcfa-a6cc-4976-9746-21d3979a7f7c}, !- Handle
  Zone HVAC Equipment List 1,             !- Name
  {a3a83a56-2141-43d9-9681-f9991dc22113}, !- Thermal Zone
  {61afe00b-95b3-4230-9053-5ed0230bddc4}, !- Zone Equipment 1
  1,                                      !- Zone Equipment Cooling Sequence 1
  1;                                      !- Zone Equipment Heating or No-Load Sequence 1

OS:Space,
  {612d8132-d2a0-4886-bb26-098c90c8686f}, !- Handle
  ZONE ONE Space,                         !- Name
  ,                                       !- Space Type Name
  ,                                       !- Default Construction Set Name
  ,                                       !- Default Schedule Set Name
  0,                                      !- Direction of Relative North {deg}
  0,                                      !- X Origin {m}
  0,                                      !- Y Origin {m}
  0,                                      !- Z Origin {m}
  ,                                       !- Building Story Name
  {a3a83a56-2141-43d9-9681-f9991dc22113}; !- Thermal Zone Name

OS:Surface,
  {909b7e1d-288e-463b-9cd8-0c4f8dc75ce9}, !- Handle
  ZONE SURFACE FLOOR,                     !- Name
  Floor,                                  !- Surface Type
  {30877b01-75df-434f-a23e-ca90f5aefb06}, !- Construction Name
  {612d8132-d2a0-4886-bb26-098c90c8686f}, !- Space Name
  Outdoors,                               !- Outside Boundary Condition
  ,                                       !- Outside Boundary Condition Object
  SunExposed,                             !- Sun Exposure
  WindExposed,                            !- Wind Exposure
  0,                                      !- View Factor to Ground
  ,                                       !- Number of Vertices
  8, 6, 0,                                !- X,Y,Z Vertex 1 {m}
  8, 0, 0,                                !- X,Y,Z Vertex 2 {m}
  0, 0, 0,                                !- X,Y,Z Vertex 3 {m}
  0, 6, 0;                                !- X,Y,Z Vertex 4 {m}

OS:Construction,
  {30877b01-75df-434f-a23e-ca90f5aefb06}, !- Handle
  LTWALL,                                 !- Name
  ,                                       !- Surface Rendering Name
  {1a86d296-89a4-4263-a7f9-fec5d8d5f0c4}, !- Layer 1
  {7e322f11-92c1-4af1-bbf4-1d32d36f50bd}; !- Layer 2

OS:Material:NoMass,
  {1a86d296-89a4-4263-a7f9-fec5d8d5f0c4}, !- Handle
  INSULATION-EXT,                         !- Name
  VerySmooth,                             !- Roughness
  50,                                     !- Thermal Resistance {m2-K/W}
  0.9,                                    !- Thermal Absorptance
  0.1,                                    !- Solar Absorptance
  0.1;                                    !- Visible Absorptance

OS:Material:NoMass,
  {7e322f11-92c1-4af1-bbf4-1d32d36f50bd}, !- Handle
  INSULATION-INT,                         !- Name
  VerySmooth,                             !- Roughness
  50,                                     !- Thermal Resistance {m2-K/W}
  0.9,                                    !- Thermal Absorptance
  0.6,                                    !- Solar Absorptance
  0.6;                                    !- Visible Absorptance

OS:Surface,
  {ac9f6ad5-16c2-441d-ae1e-6e41a450a593}, !- Handle
  ZONE SURFACE SOUTH,                     !- Name
  Wall,                                   !- Surface Type
  {30877b01-75df-434f-a23e-ca90f5aefb06}, !- Construction Name
  {612d8132-d2a0-4886-bb26-098c90c8686f}, !- Space Name
  Outdoors,                               !- Outside Boundary Condition
  ,                                       !- Outside Boundary Condition Object
  SunExposed,                             !- Sun Exposure
  WindExposed,                            !- Wind Exposure
  0.5,                                    !- View Factor to Ground
  ,                                       !- Number of Vertices
  0, 0, 2.7,                              !- X,Y,Z Vertex 1 {m}
  0, 0, 0,                                !- X,Y,Z Vertex 2 {m}
  8, 0, 0,                                !- X,Y,Z Vertex 3 {m}
  8, 0, 2.7;                              !- X,Y,Z Vertex 4 {m}

OS:Surface,
  {f3670395-2627-45d4-b2ab-46c776fedf03}, !- Handle
  ZONE SURFACE WEST,                      !- Name
  Wall,                                   !- Surface Type
  {30877b01-75df-434f-a23e-ca90f5aefb06}, !- Construction Name
  {612d8132-d2a0-4886-bb26-098c90c8686f}, !- Space Name
  Outdoors,                               !- Outside Boundary Condition
  ,                                       !- Outside Boundary Condition Object
  SunExposed,                             !- Sun Exposure
  WindExposed,                            !- Wind Exposure
  0.5,                                    !- View Factor to Ground
  ,                                       !- Number of Vertices
  0, 6, 2.7,                              !- X,Y,Z Vertex 1 {m}
  0, 6, 0,                                !- X,Y,Z Vertex 2 {m}
  0, 0, 0,                                !- X,Y,Z Vertex 3 {m}
  0, 0, 2.7;                              !- X,Y,Z Vertex 4 {m}

OS:Surface,
  {995c0fa3-3991-4163-98aa-061e8891a0a2}, !- Handle
  ZONE SURFACE NORTH,                     !- Name
  Wall,                                   !- Surface Type
  {30877b01-75df-434f-a23e-ca90f5aefb06}, !- Construction Name
  {612d8132-d2a0-4886-bb26-098c90c8686f}, !- Space Name
  Outdoors,                               !- Outside Boundary Condition
  ,                                       !- Outside Boundary Condition Object
  SunExposed,                             !- Sun Exposure
  WindExposed,                            !- Wind Exposure
  0.5,                                    !- View Factor to Ground
  ,                                       !- Number of Vertices
  8, 6, 2.7,                              !- X,Y,Z Vertex 1 {m}
  8, 6, 0,                                !- X,Y,Z Vertex 2 {m}
  0, 6, 0,                                !- X,Y,Z Vertex 3 {m}
  0, 6, 2.7;                              !- X,Y,Z Vertex 4 {m}

OS:Surface,
  {059e7268-8184-4189-9b3b-d7ec1404ef0a}, !- Handle
  ZONE SURFACE ROOF,                      !- Name
  RoofCeiling,                            !- Surface Type
  {30877b01-75df-434f-a23e-ca90f5aefb06}, !- Construction Name
  {612d8132-d2a0-4886-bb26-098c90c8686f}, !- Space Name
  Outdoors,                               !- Outside Boundary Condition
  ,                                       !- Outside Boundary Condition Object
  SunExposed,                             !- Sun Exposure
  WindExposed,                            !- Wind Exposure
  0,                                      !- View Factor to Ground
  ,                                       !- Number of Vertices
  8, 0, 2.7,                              !- X,Y,Z Vertex 1 {m}
  8, 6, 2.7,                              !- X,Y,Z Vertex 2 {m}
  0, 6, 2.7,                              !- X,Y,Z Vertex 3 {m}
  0, 0, 2.7;                              !- X,Y,Z Vertex 4 {m}

OS:Surface,
  {c5daf1bd-433f-4b55-a041-b7137a3ebbae}, !- Handle
  ZONE SURFACE EAST,                      !- Name
  Wall,                                   !- Surface Type
  {30877b01-75df-434f-a23e-ca90f5aefb06}, !- Construction Name
  {612d8132-d2a0-4886-bb26-098c90c8686f}, !- Space Name
  Outdoors,                               !- Outside Boundary Condition
  ,                                       !- Outside Boundary Condition Object
  SunExposed,                             !- Sun Exposure
  WindExposed,                            !- Wind Exposure
  0.5,                                    !- View Factor to Ground
  ,                                       !- Number of Vertices
  8, 0, 2.7,                              !- X,Y,Z Vertex 1 {m}
  8, 0, 0,                                !- X,Y,Z Vertex 2 {m}
  8, 6, 0,                                !- X,Y,Z Vertex 3 {m}
  8, 6, 2.7;                              !- X,Y,Z Vertex 4 {m}

OS:OtherEquipment,
  {1a80603c-81df-44fa-890c-3c2c9e1f0189}, !- Handle
  CE_sens_generic_inst,                   !- Name
  {f771633c-c795-4c2b-aae2-c32b785576aa}, !- Other Equipment Definition Name
  {612d8132-d2a0-4886-bb26-098c90c8686f}, !- Space or SpaceType Name
  {69874af1-e091-466b-a371-9baf770e5ae7}; !- Schedule Name

OS:OtherEquipment:Definition,
  {f771633c-c795-4c2b-aae2-c32b785576aa}, !- Handle
  CE_sens_generic,                        !- Name
  EquipmentLevel,                         !- Design Level Calculation Method
  6120,                                   !- Design Level {W}
  ,                                       !- Watts per Space Floor Area {W/m2}
  ;                                       !- Watts per Person {W/Person}

OS:Schedule:Ruleset,
  {69874af1-e091-466b-a371-9baf770e5ae7}, !- Handle
  Always On Ruleset Fractional,           !- Name
  {bec097e9-cae6-41df-961a-799f1b5ce9b2}, !- Schedule Type Limits Name
  {6ba652bd-cdfd-42fb-8a82-a65218b62dd1}; !- Default Day Schedule Name

OS:Schedule:Day,
  {6ba652bd-cdfd-42fb-8a82-a65218b62dd1}, !- Handle
  Schedule Day 6,                         !- Name
  {bec097e9-cae6-41df-961a-799f1b5ce9b2}, !- Schedule Type Limits Name
  ,                                       !- Interpolate to Timestep
  24,                                     !- Hour 1
  0,                                      !- Minute 1
  1;                                      !- Value Until Time 1

OS:ScheduleTypeLimits,
  {bec097e9-cae6-41df-961a-799f1b5ce9b2}, !- Handle
  Fractional,                             !- Name
  0,                                      !- Lower Limit Value
  1,                                      !- Upper Limit Value
  Continuous;                             !- Numeric Type

OS:OtherEquipment,
  {3c7f5d34-902b-4182-8890-5f617bac9d10}, !- Handle
  CE_lat_generic_inst,                    !- Name
  {5ced485f-2431-4c1a-a748-a247b2319f28}, !- Other Equipment Definition Name
  {612d8132-d2a0-4886-bb26-098c90c8686f}, !- Space or SpaceType Name
  {69874af1-e091-466b-a371-9baf770e5ae7}; !- Schedule Name

OS:OtherEquipment:Definition,
  {5ced485f-2431-4c1a-a748-a247b2319f28}, !- Handle
  CE_lat_generic,                         !- Name
  EquipmentLevel,                         !- Design Level Calculation Method
  1817,                                   !- Design Level {W}
  ,                                       !- Watts per Space Floor Area {W/m2}
  ,                                       !- Watts per Person {W/Person}
  1,                                      !- Fraction Latent
  0;                                      !- Fraction Radiant

OS:Schedule:Constant,
  {21fec627-e695-43da-896e-db6ae9a59e54}, !- Handle
  26.7 C,                                 !- Name
  {4b906f82-9cc7-4e93-bbf6-98b83dcfc0ef}, !- Schedule Type Limits Name
  26.7;                                   !- Value

OS:Schedule:Ruleset,
  {7f85dbb2-88a3-44f8-b77d-154ee35713a7}, !- Handle
  No Heating,                             !- Name
  {4b906f82-9cc7-4e93-bbf6-98b83dcfc0ef}, !- Schedule Type Limits Name
  {e56568ed-3a3d-470d-948d-2e3ae8bab58b}; !- Default Day Schedule Name

OS:ScheduleTypeLimits,
  {4b906f82-9cc7-4e93-bbf6-98b83dcfc0ef}, !- Handle
  Temperature,                            !- Name
  ,                                       !- Lower Limit Value
  ,                                       !- Upper Limit Value
  Continuous,                             !- Numeric Type
  Temperature;                            !- Unit Type

OS:Schedule:Day,
  {e56568ed-3a3d-470d-948d-2e3ae8bab58b}, !- Handle
  Schedule Day 2,                         !- Name
  {4b906f82-9cc7-4e93-bbf6-98b83dcfc0ef}, !- Schedule Type Limits Name
  ,                                       !- Interpolate to Timestep
  24,                                     !- Hour 1
  0,                                      !- Minute 1
  -100;                                   !- Value Until Time 1

OS:ThermostatSetpoint:DualSetpoint,
  {408e5284-43a4-4ccc-a1f4-b16e8b346c57}, !- Handle
  Thermostat Setpoint Dual Setpoint 1,    !- Name
  {7f85dbb2-88a3-44f8-b77d-154ee35713a7}, !- Heating Setpoint Temperature Schedule Name
  {21fec627-e695-43da-896e-db6ae9a59e54}; !- Cooling Setpoint Temperature Schedule Name

OS:Schedule:Constant,
  {933143b7-cae9-485c-a385-8c83994aa198}, !- Handle
  Always On Discrete,                     !- Name
  {ec8cbc1e-1693-4a0d-8725-baf1542f8547}, !- Schedule Type Limits Name
  1;                                      !- Value

OS:ScheduleTypeLimits,
  {ec8cbc1e-1693-4a0d-8725-baf1542f8547}, !- Handle
  OnOff,                                  !- Name
  0,                                      !- Lower Limit Value
  1,                                      !- Upper Limit Value
  Discrete,                               !- Numeric Type
  Availability;                           !- Unit Type

OS:AirLoopHVAC,
  {849422e7-14fa-4dad-9a70-6cbe8b5d8617}, !- Handle
  BESTEST CE air loop,                    !- Name
  ,                                       !- Controller List Name
  {933143b7-cae9-485c-a385-8c83994aa198}, !- Availability Schedule
  ,                                       !- Availability Manager
  1.888,                                  !- Design Supply Air Flow Rate {m3/s}
  ,                                       !- Branch List Name
  ,                                       !- Connector List Name
  {f9df4019-3bbb-4d37-a0e9-2dd1b7e23bbd}, !- Supply Side Inlet Node Name
  {602d87dd-3caa-4681-8b3f-e80b3e69364b}, !- Demand Side Outlet Node Name
  {cb6e179a-3f6c-49b9-8f63-d80dad2451ca}, !- Demand Side Inlet Node A
  {a263e670-6823-4cce-8cfa-4f49f27b7792}, !- Supply Side Outlet Node A
  ,                                       !- Demand Side Inlet Node B
  ;                                       !- Supply Side Outlet Node B

OS:Node,
  {952b8311-fba5-4e3b-a3e8-f8cb53692c48}, !- Handle
  Node 2,                                 !- Name
  {f9df4019-3bbb-4d37-a0e9-2dd1b7e23bbd}, !- Inlet Port
  {02158fb6-8424-4f82-88d8-214653bfaf6f}; !- Outlet Port

OS:Node,
  {ac80aeb7-26fb-4c19-971e-147c6a0ad165}, !- Handle
  Node 3,                                 !- Name
  {0e17f1f1-8096-4ffb-b203-d25f6d3b79db}, !- Inlet Port
  {a263e670-6823-4cce-8cfa-4f49f27b7792}; !- Outlet Port

OS:Connection,
  {f9df4019-3bbb-4d37-a0e9-2dd1b7e23bbd}, !- Handle
  {5976aad0-8c2d-4cec-9396-7ade85203dde}, !- Name
  {849422e7-14fa-4dad-9a70-6cbe8b5d8617}, !- Source Object
  8,                                      !- Outlet Port
  {952b8311-fba5-4e3b-a3e8-f8cb53692c48}, !- Target Object
  2;                                      !- Inlet Port

OS:Connection,
  {a263e670-6823-4cce-8cfa-4f49f27b7792}, !- Handle
  {514ba74e-1c73-4792-96cf-84c16bfa28bf}, !- Name
  {ac80aeb7-26fb-4c19-971e-147c6a0ad165}, !- Source Object
  3,                                      !- Outlet Port
  {849422e7-14fa-4dad-9a70-6cbe8b5d8617}, !- Target Object
  11;                                     !- Inlet Port

OS:Node,
  {289538cd-ef2e-41d4-ac36-89d3ea93721a}, !- Handle
  Node 4,                                 !- Name
  {cb6e179a-3f6c-49b9-8f63-d80dad2451ca}, !- Inlet Port
  {442f7531-bf71-494f-90b8-f8130c570471}; !- Outlet Port

OS:Node,
  {8668a70f-69e4-4ade-8209-59a0db714bb4}, !- Handle
  Node 5,                                 !- Name
  {dee51b80-2640-4296-b1d7-65e9ebb1b2d3}, !- Inlet Port
  {602d87dd-3caa-4681-8b3f-e80b3e69364b}; !- Outlet Port

OS:Node,
  {05ce87d2-ccb1-450a-8984-0b9acf0c8dab}, !- Handle
  Node 6,                                 !- Name
  {a7e193eb-d57b-4681-b49f-250c8c105645}, !- Inlet Port