
OS:Version,
  {2dcd477d-ef5b-4073-8187-408f53e29aa4}, !- Handle
  1.13.1;                                 !- Version Identifier

OS:Site,
  {bc874655-a927-4872-a278-1347186bb1d9}, !- Handle
  MIAMI_FL_USA,                           !- Name
  25.8,                                   !- Latitude {deg}
  -80.27,                                 !- Longitude {deg}
  -5,                                     !- Time Zone {hr}
  2,                                      !- Elevation {m}
  Country;                                !- Terrain

OS:YearDescription,
  {9116ce1c-534f-4b3a-9d15-2bb1a805c7e1}, !- Handle
  2008,                                   !- Calendar Year
  ,                                       !- Day of Week for Start Day
  ;                                       !- Is Leap Year

OS:ClimateZones,
  {dd268d6b-2da7-4abc-b8ad-35d0988c56cd}, !- Handle
  ,                                       !- Active Institution
  ,                                       !- Active Year
  ASHRAE,                                 !- Climate Zone Institution Name 1
  ANSI/ASHRAE Standard 169,               !- Climate Zone Document Name 1
  2006,                                   !- Climate Zone Document Year 1
  ,                                       !- Climate Zone Value 1
  CEC,                                    !- Climate Zone Institution Name 2
  California Climate Zone Descriptions,   !- Climate Zone Document Name 2
  1995,                                   !- Climate Zone Document Year 2
  ;                                       !- Climate Zone Value 2

OS:Facility,
  {01cd2b0a-8ee0-4ab6-a2fb-9f6c7d21094d}; !- Handle

OS:SimulationControl,
  {30e9303f-ed23-491c-b310-8ef7274e967f}, !- Handle
  ,                                       !- Do Zone Sizing Calculation
  ,                                       !- Do System Sizing Calculation
  ,                                       !- Do Plant Sizing Calculation
  No,                                     !- Run Simulation for Sizing Periods
  ,                                       !- Run Simulation for Weather File Run Periods
  ,                                       !- Loads Convergence Tolerance Value
  ,                                       !- Temperature Convergence Tolerance Value {deltaC}
  FullInteriorAndExterior,                !- Solar Distribution
  ,                                       !- Maximum Number of Warmup Days
  6;                                      !- Minimum Number of Warmup Days

OS:Sizing:Parameters,
  {c983733e-8a2d-428d-8380-a9c380f3d01c}, !- Handle
  1.25,                                   !- Heating Sizing Factor
  1.15;                                   !- Cooling Sizing Factor

OS:Timestep,
  {7a470c9d-4813-47b4-b276-325100b7b62f}, !- Handle
  4;                                      !- Number of Timesteps per Hour

OS:ShadowCalculation,
  {21696cf9-7a12-43bf-ac4c-50d1be8bf2fd}, !- Handle
  20,                                     !- Calculation Frequency
  15000;                                  !- Maximum Figures in Shadow Overlap Calculations

OS:HeatBalanceAlgorithm,
  {09f4a614-27ba-43a9-a0ac-4379e03c44e8}, !- Handle
  ConductionTransferFunction,             !- Algorithm
  200;                                    !- Surface Temperature Upper Limit {C}

OS:RunPeriod,
  {322b0b21-e55e-459f-b4f2-853d2d37fd9a}, !- Handle
  Run Period 1,                           !- Name
  1,                                      !- Begin Month
  1,                                      !- Begin Day of Month
  12,                                     !- End Month
  31,                                     !- End Day of Month
  ,                                       !- Use Weather File Holidays and Special Days
  ,                                       !- Use Weather File Daylight Saving Period
  ,                                       !- Apply Weekend Holiday Rule
  ,                                       !- Use Weather File Rain Indicators
  ,                                       !- Use Weather File Snow Indicators
  ;                                       !- Number of Times Runperiod to be Repeated

OS:LifeCycleCost:Parameters,
  {a8ce31c8-7533-4ad7-aa7a-5380b4197455}, !- Handle
  ,                                       !- Analysis Type
  ,                                       !- Discounting Convention
  ,                                       !- Inflation Approach
  ,                                       !- Real Discount Rate
  ,                                       !- Nominal Discount Rate
  ,                                       !- Inflation
  ,                                       !- Base Date Month
  ,                                       !- Base Date Year
  ,                                       !- Service Date Month
  ,                                       !- Service Date Year
  ;                                       !- Length of Study Period in Years

OS:SurfaceConvectionAlgorithm:Inside,
  {fa75f3f4-d70d-40a1-995a-5d6dc42ad06b}, !- Handle
  TARP;                                   !- Algorithm

OS:SurfaceConvectionAlgorithm:Outside,
  {fd6dd8c4-d033-4ed7-8400-6c6d60dbd941}, !- Handle
  TARP;                                   !- Algorithm

OS:WeatherFile,
  {382a7c00-5bd1-4da3-9806-8797e373bf4d}, !- Handle
  MIAMI,                                  !- City
  FL,                                     !- State Province Region
  USA,                                    !- Country
  TMY2-12839,                             !- Data Source
  722020,                                 !- WMO Number
  25.8,                                   !- Latitude {deg}
  -80.27,                                 !- Longitude {deg}
  -5,                                     !- Time Zone {hr}
  2,                                      !- Elevation {m}
  file:///Users/dgoldwas/Documents/GitHub/OSEP_BESTTEST/measures/bestest_space_cooling_equipment_performance_tests/resources/CE200ATM2.epw, !- Url
  53932B90;                               !- Checksum

OS:SizingPeriod:DesignDay,
  {a10e30bb-d37d-42f6-9f99-332848566c53}, !- Handle
  Sizing Period Design Day 1,             !- Name
  23,                                     !- Maximum Dry-Bulb Temperature {C}
  0,                                      !- Daily Dry-Bulb Temperature Range {deltaC}
  23,                                     !- Humidity Indicating Conditions at Maximum Dry-Bulb
  31000,                                  !- Barometric Pressure {Pa}
  0,                                      !- Wind Speed {m/s}
  0,                                      !- Wind Direction {deg}
  0,                                      !- Sky Clearness
  ,                                       !- Rain Indicator
  0,                                      !- Snow Indicator
  1,                                      !- Day of Month
  1,                                      !- Month
  SummerDesignDay,                        !- Day Type
  0,                                      !- Daylight Saving Time Indicator
  WetBulb,                                !- Humidity Indicating Type
  ,                                       !- Humidity Indicating Day Schedule Name
  DefaultMultipliers,                     !- Dry-Bulb Temperature Range Modifier Type
  ,                                       !- Dry-Bulb Temperature Range Modifier Schedule Name
  AshraeClearSky;                         !- Solar Model Indicator

OS:SizingPeriod:DesignDay,
  {8130b017-9453-4e81-87c3-76d4b3f278f0}, !- Handle
  Sizing Period Design Day 2,             !- Name
  23,                                     !- Maximum Dry-Bulb Temperature {C}
  0,                                      !- Daily Dry-Bulb Temperature Range {deltaC}
  23,                                     !- Humidity Indicating Conditions at Maximum Dry-Bulb
  31000,                                  !- Barometric Pressure {Pa}
  0,                                      !- Wind Speed {m/s}
  0,                                      !- Wind Direction {deg}
  0,                                      !- Sky Clearness
  ,                                       !- Rain Indicator
  0,                                      !- Snow Indicator
  1,                                      !- Day of Month
  1,                                      !- Month
  WinterDesignDay,                        !- Day Type
  0,                                      !- Daylight Saving Time Indicator
  WetBulb,                                !- Humidity Indicating Type
  ,                                       !- Humidity Indicating Day Schedule Name
  DefaultMultipliers,                     !- Dry-Bulb Temperature Range Modifier Type
  ,                                       !- Dry-Bulb Temperature Range Modifier Schedule Name
  AshraeClearSky;                         !- Solar Model Indicator

OS:Building,
  {33c1c1b9-e65d-4867-b12c-2f1fae39a720}, !- Handle
  BESTEST Case CE200 - Full-Load Test at AHRI Conditions, !- Name
  ,                                       !- Building Sector Type
  0,                                      !- North Axis {deg}
  ,                                       !- Nominal Floor to Floor Height {m}
  ,                                       !- Space Type Name
  ,                                       !- Default Construction Set Name
  ;                                       !- Default Schedule Set Name

OS:ThermalZone,
  {e5303404-ea5d-4273-8700-2c877ba38239}, !- Handle
  ZONE ONE,                               !- Name
  1,                                      !- Multiplier
  2.7,                                    !- Ceiling Height {m}
  129.6,                                  !- Volume {m3}
  ,                                       !- Floor Area {m2}
  ,                                       !- Zone Inside Convection Algorithm
  ,                                       !- Zone Outside Convection Algorithm
  ,                                       !- Zone Conditioning Equipment List Name
  {c566285d-6b56-4add-8094-5ab471a6b954}, !- Zone Air Inlet Port List
  {5662bc74-6723-4fdd-94bc-1d4fa623cc9a}, !- Zone Air Exhaust Port List
  {a97a5f4f-e869-4baa-99b2-08b1c78341f5}, !- Zone Air Node Name
  {8d3bfb71-96ae-4a71-8d7c-0b9d4e33bf9d}, !- Zone Return Air Node Name
  ,                                       !- Primary Daylighting Control Name
  ,                                       !- Fraction of Zone Controlled by Primary Daylighting Control
  ,                                       !- Secondary Daylighting Control Name
  ,                                       !- Fraction of Zone Controlled by Secondary Daylighting Control
  ,                                       !- Illuminance Map Name
  ,                                       !- Group Rendering Name
  {919c385c-bc3a-4627-8141-d0bb8be7c9dd}, !- Thermostat Name
  No,                                     !- Use Ideal Air Loads
  ;                                       !- Humidistat Name

OS:Node,
  {3ade45f8-b6d9-4705-9f50-c366569c3fd2}, !- Handle
  Node 1,                                 !- Name
  {a97a5f4f-e869-4baa-99b2-08b1c78341f5}, !- Inlet Port
  ;                                       !- Outlet Port

OS:Connection,
  {a97a5f4f-e869-4baa-99b2-08b1c78341f5}, !- Handle
  {0154ce8e-eb86-4560-9ca7-12338da961df}, !- Name
  {e5303404-ea5d-4273-8700-2c877ba38239}, !- Source Object
  11,                                     !- Outlet Port
  {3ade45f8-b6d9-4705-9f50-c366569c3fd2}, !- Target Object
  2;                                      !- Inlet Port

OS:PortList,
  {c566285d-6b56-4add-8094-5ab471a6b954}, !- Handle
  Port List 1,                            !- Name
  {e5303404-ea5d-4273-8700-2c877ba38239}, !- HVAC Component
  {31237763-87e9-4edf-972a-75ec563d1efb}; !- Port 1

OS:PortList,
  {5662bc74-6723-4fdd-94bc-1d4fa623cc9a}, !- Handle
  Port List 2,                            !- Name
  {e5303404-ea5d-4273-8700-2c877ba38239}; !- HVAC Component

OS:Sizing:Zone,
  {a729dc0e-550c-487d-96e0-6b3d7fbf1af6}, !- Handle
  {e5303404-ea5d-4273-8700-2c877ba38239}, !- Zone or ZoneList Name
  SupplyAirTemperature,                   !- Zone Cooling Design Supply Air Temperature Input Method
  14,                                     !- Zone Cooling Design Supply Air Temperature {C}
  11.11,                                  !- Zone Cooling Design Supply Air Temperature Difference {deltaC}
  SupplyAirTemperature,                   !- Zone Heating Design Supply Air Temperature Input Method
  40,                                     !- Zone Heating Design Supply Air Temperature {C}
  11.11,                                  !- Zone Heating Design Supply Air Temperature Difference {deltaC}
  0.0085,                                 !- Zone Cooling Design Supply Air Humidity Ratio {kg-H2O/kg-air}
  0.008,                                  !- Zone Heating Design Supply Air Humidity Ratio {kg-H2O/kg-air}
  ,                                       !- Zone Heating Sizing Factor
  ,                                       !- Zone Cooling Sizing Factor
  DesignDay,                              !- Cooling Design Air Flow Method
  ,                                       !- Cooling Design Air Flow Rate {m3/s}
  ,                                       !- Cooling Minimum Air Flow per Zone Floor Area {m3/s-m2}
  ,                                       !- Cooling Minimum Air Flow {m3/s}
  ,                                       !- Cooling Minimum Air Flow Fraction
  DesignDay,                              !- Heating Design Air Flow Method
  ,                                       !- Heating Design Air Flow Rate {m3/s}
  ,                                       !- Heating Maximum Air Flow per Zone Floor Area {m3/s-m2}
  ,                                       !- Heating Maximum Air Flow {m3/s}
  ,                                       !- Heating Maximum Air Flow Fraction
  ,                                       !- Design Zone Air Distribution Effectiveness in Cooling Mode
  ,                                       !- Design Zone Air Distribution Effectiveness in Heating Mode
  No,                                     !- Account for Dedicated Outdoor Air System
  NeutralSupplyAir,                       !- Dedicated Outdoor Air System Control Strategy
  autosize,                               !- Dedicated Outdoor Air Low Setpoint Temperature for Design {C}
  autosize;                               !- Dedicated Outdoor Air High Setpoint Temperature for Design {C}

OS:ZoneHVAC:EquipmentList,
  {1ac39025-861b-4c57-a3fc-7c1419633d18}, !- Handle
  Zone HVAC Equipment List 1,             !- Name
  {e5303404-ea5d-4273-8700-2c877ba38239}, !- Thermal Zone
  {5eed9e90-7947-4810-9fb4-ca006a376b08}, !- Zone Equipment 1
  1,                                      !- Zone Equipment Cooling Sequence 1
  1;                                      !- Zone Equipment Heating or No-Load Sequence 1

OS:Space,
  {c3d4157d-fb79-4afd-98de-3af1c1bea1ac}, !- Handle
  ZONE ONE Space,                         !- Name
  ,                                       !- Space Type Name
  ,                                       !- Default Construction Set Name
  ,                                       !- Default Schedule Set Name
  0,                                      !- Direction of Relative North {deg}
  0,                                      !- X Origin {m}
  0,                                      !- Y Origin {m}
  0,                                      !- Z Origin {m}
  ,                                       !- Building Story Name
  {e5303404-ea5d-4273-8700-2c877ba38239}; !- Thermal Zone Name

OS:Surface,
  {dcb99c6d-bc69-4392-b6c9-243e515201ef}, !- Handle
  ZONE SURFACE FLOOR,                     !- Name
  Floor,                                  !- Surface Type
  {b6e3857e-c3c7-498d-8a72-cd8d671d1bba}, !- Construction Name
  {c3d4157d-fb79-4afd-98de-3af1c1bea1ac}, !- Space Name
  Outdoors,                               !- Outside Boundary Condition
  ,                                       !- Outside Boundary Condition Object
  SunExposed,                             !- Sun Exposure
  WindExposed,                            !- Wind Exposure
  0,                                      !- View Factor to Ground
  ,                                       !- Number of Vertices
  8, 6, 0,                                !- X,Y,Z Vertex 1 {m}
  8, 0, 0,                                !- X,Y,Z Vertex 2 {m}
  0, 0, 0,                                !- X,Y,Z Vertex 3 {m}
  0, 6, 0;                                !- X,Y,Z Vertex 4 {m}

OS:Construction,
  {b6e3857e-c3c7-498d-8a72-cd8d671d1bba}, !- Handle
  LTWALL,                                 !- Name
  ,                                       !- Surface Rendering Name
  {d1a8f8b7-3daa-446d-9025-73905e1ab564}, !- Layer 1
  {fd8a7061-b9d8-4b77-84f9-a531c293f31c}; !- Layer 2

OS:Material:NoMass,
  {d1a8f8b7-3daa-446d-9025-73905e1ab564}, !- Handle
  INSULATION-EXT,                         !- Name
  VerySmooth,                             !- Roughness
  50,                                     !- Thermal Resistance {m2-K/W}
  0.9,                                    !- Thermal Absorptance
  0.1,                                    !- Solar Absorptance
  0.1;                                    !- Visible Absorptance

OS:Material:NoMass,
  {fd8a7061-b9d8-4b77-84f9-a531c293f31c}, !- Handle
  INSULATION-INT,                         !- Name
  VerySmooth,                             !- Roughness
  50,                                     !- Thermal Resistance {m2-K/W}
  0.9,                                    !- Thermal Absorptance
  0.6,                                    !- Solar Absorptance
  0.6;                                    !- Visible Absorptance

OS:Surface,
  {1804caf4-f652-4c94-84ee-18525fb9b561}, !- Handle
  ZONE SURFACE SOUTH,                     !- Name
  Wall,                                   !- Surface Type
  {b6e3857e-c3c7-498d-8a72-cd8d671d1bba}, !- Construction Name
  {c3d4157d-fb79-4afd-98de-3af1c1bea1ac}, !- Space Name
  Outdoors,                               !- Outside Boundary Condition
  ,                                       !- Outside Boundary Condition Object
  SunExposed,                             !- Sun Exposure
  WindExposed,                            !- Wind Exposure
  0.5,                                    !- View Factor to Ground
  ,                                       !- Number of Vertices
  0, 0, 2.7,                              !- X,Y,Z Vertex 1 {m}
  0, 0, 0,                                !- X,Y,Z Vertex 2 {m}
  8, 0, 0,                                !- X,Y,Z Vertex 3 {m}
  8, 0, 2.7;                              !- X,Y,Z Vertex 4 {m}

OS:Surface,
  {b4cc99e1-b397-4399-9b11-25d09ce84762}, !- Handle
  ZONE SURFACE WEST,                      !- Name
  Wall,                                   !- Surface Type
  {b6e3857e-c3c7-498d-8a72-cd8d671d1bba}, !- Construction Name
  {c3d4157d-fb79-4afd-98de-3af1c1bea1ac}, !- Space Name
  Outdoors,                               !- Outside Boundary Condition
  ,                                       !- Outside Boundary Condition Object
  SunExposed,                             !- Sun Exposure
  WindExposed,                            !- Wind Exposure
  0.5,                                    !- View Factor to Ground
  ,                                       !- Number of Vertices
  0, 6, 2.7,                              !- X,Y,Z Vertex 1 {m}
  0, 6, 0,                                !- X,Y,Z Vertex 2 {m}
  0, 0, 0,                                !- X,Y,Z Vertex 3 {m}
  0, 0, 2.7;                              !- X,Y,Z Vertex 4 {m}

OS:Surface,
  {d0f5b77e-3a9a-46cc-ae42-328202b3a1e8}, !- Handle
  ZONE SURFACE NORTH,                     !- Name
  Wall,                                   !- Surface Type
  {b6e3857e-c3c7-498d-8a72-cd8d671d1bba}, !- Construction Name
  {c3d4157d-fb79-4afd-98de-3af1c1bea1ac}, !- Space Name
  Outdoors,                               !- Outside Boundary Condition
  ,                                       !- Outside Boundary Condition Object
  SunExposed,                             !- Sun Exposure
  WindExposed,                            !- Wind Exposure
  0.5,                                    !- View Factor to Ground
  ,                                       !- Number of Vertices
  8, 6, 2.7,                              !- X,Y,Z Vertex 1 {m}
  8, 6, 0,                                !- X,Y,Z Vertex 2 {m}
  0, 6, 0,                                !- X,Y,Z Vertex 3 {m}
  0, 6, 2.7;                              !- X,Y,Z Vertex 4 {m}

OS:Surface,
  {75e70bfd-2c9a-4b54-8f43-1a6845bfb4d2}, !- Handle
  ZONE SURFACE ROOF,                      !- Name
  RoofCeiling,                            !- Surface Type
  {b6e3857e-c3c7-498d-8a72-cd8d671d1bba}, !- Construction Name
  {c3d4157d-fb79-4afd-98de-3af1c1bea1ac}, !- Space Name
  Outdoors,                               !- Outside Boundary Condition
  ,                                       !- Outside Boundary Condition Object
  SunExposed,                             !- Sun Exposure
  WindExposed,                            !- Wind Exposure
  0,                                      !- View Factor to Ground
  ,                                       !- Number of Vertices
  8, 0, 2.7,                              !- X,Y,Z Vertex 1 {m}
  8, 6, 2.7,                              !- X,Y,Z Vertex 2 {m}
  0, 6, 2.7,                              !- X,Y,Z Vertex 3 {m}
  0, 0, 2.7;                              !- X,Y,Z Vertex 4 {m}

OS:Surface,
  {654a878f-a769-4046-a55c-eab6c28dfff9}, !- Handle
  ZONE SURFACE EAST,                      !- Name
  Wall,                                   !- Surface Type
  {b6e3857e-c3c7-498d-8a72-cd8d671d1bba}, !- Construction Name
  {c3d4157d-fb79-4afd-98de-3af1c1bea1ac}, !- Space Name
  Outdoors,                               !- Outside Boundary Condition
  ,                                       !- Outside Boundary Condition Object
  SunExposed,                             !- Sun Exposure
  WindExposed,                            !- Wind Exposure
  0.5,                                    !- View Factor to Ground
  ,                                       !- Number of Vertices
  8, 0, 2.7,                              !- X,Y,Z Vertex 1 {m}
  8, 0, 0,                                !- X,Y,Z Vertex 2 {m}
  8, 6, 0,                                !- X,Y,Z Vertex 3 {m}
  8, 6, 2.7;                              !- X,Y,Z Vertex 4 {m}

OS:OtherEquipment,
  {51ffa6b1-3b5d-4d53-9a21-698258dad6bf}, !- Handle
  CE_sens_generic_inst,                   !- Name
  {6081ac04-998e-4181-9809-28bcca896eaf}, !- Other Equipment Definition Name
  {c3d4157d-fb79-4afd-98de-3af1c1bea1ac}, !- Space or SpaceType Name
  {4a359506-05ec-4062-a481-856a63db7434}; !- Schedule Name

OS:OtherEquipment:Definition,
  {6081ac04-998e-4181-9809-28bcca896eaf}, !- Handle
  CE_sens_generic,                        !- Name
  EquipmentLevel,                         !- Design Level Calculation Method
  6120,                                   !- Design Level {W}
  ,                                       !- Watts per Space Floor Area {W/m2}
  ;                                       !- Watts per Person {W/Person}

OS:Schedule:Ruleset,
  {4a359506-05ec-4062-a481-856a63db7434}, !- Handle
  Always On Ruleset Fractional,           !- Name
  {b347e51a-1405-41fd-87c8-4d0e3ed18ce6}, !- Schedule Type Limits Name
  {9ca5e176-4c61-42b6-b1b6-227b16479611}; !- Default Day Schedule Name

OS:Schedule:Day,
  {9ca5e176-4c61-42b6-b1b6-227b16479611}, !- Handle
  Schedule Day 6,                         !- Name
  {b347e51a-1405-41fd-87c8-4d0e3ed18ce6}, !- Schedule Type Limits Name
  ,                                       !- Interpolate to Timestep
  24,                                     !- Hour 1
  0,                                      !- Minute 1
  1;                                      !- Value Until Time 1

OS:ScheduleTypeLimits,
  {b347e51a-1405-41fd-87c8-4d0e3ed18ce6}, !- Handle
  Fractional,                             !- Name
  0,                                      !- Lower Limit Value
  1,                                      !- Upper Limit Value
  Continuous;                             !- Numeric Type

OS:OtherEquipment,
  {e3714f7a-c5c7-4041-ad58-10bf24cb405e}, !- Handle
  CE_lat_generic_inst,                    !- Name
  {0caac5a4-f43f-4d72-8c66-b840cecf4093}, !- Other Equipment Definition Name
  {c3d4157d-fb79-4afd-98de-3af1c1bea1ac}, !- Space or SpaceType Name
  {4a359506-05ec-4062-a481-856a63db7434}; !- Schedule Name

OS:OtherEquipment:Definition,
  {0caac5a4-f43f-4d72-8c66-b840cecf4093}, !- Handle
  CE_lat_generic,                         !- Name
  EquipmentLevel,                         !- Design Level Calculation Method
  1817,                                   !- Design Level {W}
  ,                                       !- Watts per Space Floor Area {W/m2}
  ,                                       !- Watts per Person {W/Person}
  1,                                      !- Fraction Latent
  0;                                      !- Fraction Radiant

OS:Schedule:Constant,
  {c40b7175-9fec-48bb-9abb-678aee89baaa}, !- Handle
  26.7 C,                                 !- Name
  {ab42dcab-9a5e-46e4-8dfa-bbec5ea78360}, !- Schedule Type Limits Name
  26.7;                                   !- Value

OS:Schedule:Ruleset,
  {9f9b3011-0c0b-4f32-8678-e07f8d9c23eb}, !- Handle
  No Heating,                             !- Name
  {ab42dcab-9a5e-46e4-8dfa-bbec5ea78360}, !- Schedule Type Limits Name
  {e1044007-9ee7-4c2f-9a3c-1f185e6bcc93}; !- Default Day Schedule Name

OS:ScheduleTypeLimits,
  {ab42dcab-9a5e-46e4-8dfa-bbec5ea78360}, !- Handle
  Temperature,                            !- Name
  ,                                       !- Lower Limit Value
  ,                                       !- Upper Limit Value
  Continuous,                             !- Numeric Type
  Temperature;                            !- Unit Type

OS:Schedule:Day,
  {e1044007-9ee7-4c2f-9a3c-1f185e6bcc93}, !- Handle
  Schedule Day 2,                         !- Name
  {ab42dcab-9a5e-46e4-8dfa-bbec5ea78360}, !- Schedule Type Limits Name
  ,                                       !- Interpolate to Timestep
  24,                                     !- Hour 1
  0,                                      !- Minute 1
  -100;                                   !- Value Until Time 1

OS:ThermostatSetpoint:DualSetpoint,
  {919c385c-bc3a-4627-8141-d0bb8be7c9dd}, !- Handle
  Thermostat Setpoint Dual Setpoint 1,    !- Name
  {9f9b3011-0c0b-4f32-8678-e07f8d9c23eb}, !- Heating Setpoint Temperature Schedule Name
  {c40b7175-9fec-48bb-9abb-678aee89baaa}; !- Cooling Setpoint Temperature Schedule Name

OS:Schedule:Constant,
  {08deafc8-9774-4c32-83f6-c1538b4fa930}, !- Handle
  Always On Discrete,                     !- Name
  {f84bf555-d8a9-458f-aa58-7eeec44732ef}, !- Schedule Type Limits Name
  1;                                      !- Value

OS:ScheduleTypeLimits,
  {f84bf555-d8a9-458f-aa58-7eeec44732ef}, !- Handle
  OnOff,                                  !- Name
  0,                                      !- Lower Limit Value
  1,                                      !- Upper Limit Value
  Discrete,                               !- Numeric Type
  Availability;                           !- Unit Type

OS:AirLoopHVAC,
  {399f05b5-5cef-464d-ac2e-0e32c384618b}, !- Handle
  BESTEST CE air loop,                    !- Name
  ,                                       !- Controller List Name
  {08deafc8-9774-4c32-83f6-c1538b4fa930}, !- Availability Schedule
  ,                                       !- Availability Manager
  1.888,                                  !- Design Supply Air Flow Rate {m3/s}
  ,                                       !- Branch List Name
  ,                                       !- Connector List Name
  {34a1555c-25c8-454c-a22c-b60d62333022}, !- Supply Side Inlet Node Name
  {c8629a7b-2537-4c04-976d-c739d24b2a26}, !- Demand Side Outlet Node Name
  {79f53299-66c2-4220-b6d9-79fce077984d}, !- Demand Side Inlet Node A
  {e6eb59c6-e52d-4950-9eb4-9cb9775b5a59}, !- Supply Side Outlet Node A
  ,                                       !- Demand Side Inlet Node B
  ;                                       !- Supply Side Outlet Node B

OS:Node,
  {e728674f-1346-42a5-87f8-ef48006b42b4}, !- Handle
  Node 2,                                 !- Name
  {34a1555c-25c8-454c-a22c-b60d62333022}, !- Inlet Port
  {833482e1-1497-4a77-ad84-94e145b923d2}; !- Outlet Port

OS:Node,
  {a41ac9d6-f372-4842-bb13-bcafcc50ea85}, !- Handle
  Node 3,                                 !- Name
  {161f31d3-9e2f-4a26-9666-d30da4b70967}, !- Inlet Port
  {e6eb59c6-e52d-4950-9eb4-9cb9775b5a59}; !- Outlet Port

OS:Connection,
  {34a1555c-25c8-454c-a22c-b60d62333022}, !- Handle
  {1c86aba9-6383-43b4-b156-6cf6dd420176}, !- Name
  {399f05b5-5cef-464d-ac2e-0e32c384618b}, !- Source Object
  8,                                      !- Outlet Port
  {e728674f-1346-42a5-87f8-ef48006b42b4}, !- Target Object
  2;                                      !- Inlet Port

OS:Connection,
  {e6eb59c6-e52d-4950-9eb4-9cb9775b5a59}, !- Handle
  {8b9c73c0-696e-4b03-841e-15350723301c}, !- Name
  {a41ac9d6-f372-4842-bb13-bcafcc50ea85}, !- Source Object
  3,                                      !- Outlet Port
  {399f05b5-5cef-464d-ac2e-0e32c384618b}, !- Target Object
  11;                                     !- Inlet Port

OS:Node,
  {9fd78b65-684c-446f-b0ad-59c80cae0337}, !- Handle
  Node 4,                                 !- Name
  {79f53299-66c2-4220-b6d9-79fce077984d}, !- Inlet Port
  {150e9ac7-6432-43d3-972c-408681884587}; !- Outlet Port

OS:Node,
  {621170d5-2b60-4f1b-a6b6-54d1b63d5ca2}, !- Handle
  Node 5,                                 !- Name
  {607b1bfc-5568-489f-8574-3ffcf790afe7}, !- Inlet Port
  {c8629a7b-2537-4c04-976d-c739d24b2a26}; !- Outlet Port

OS:Node,
  {38babd8d-6dea-4b51-b501-9a910738fa0c}, !- Handle
  Node 6,                                 !- Name
  {33b8a08d-cd0d-4afd-b1a1-7e671dad6215}, !- Inlet Port