
OS:Version,
  {5f40dc72-fd59-45fb-96ab-a06917f55a78}, !- Handle
  1.13.1;                                 !- Version Identifier

OS:Site,
  {bc874655-a927-4872-a278-1347186bb1d9}, !- Handle
  NEW_ORLEANS_LA_USA,                     !- Name
  29.98,                                  !- Latitude {deg}
  -90.25,                                 !- Longitude {deg}
  -6,                                     !- Time Zone {hr}
  3,                                      !- Elevation {m}
  Country;                                !- Terrain

OS:YearDescription,
  {9116ce1c-534f-4b3a-9d15-2bb1a805c7e1}, !- Handle
  2008,                                   !- Calendar Year
  ,                                       !- Day of Week for Start Day
  ;                                       !- Is Leap Year

OS:ClimateZones,
  {dd268d6b-2da7-4abc-b8ad-35d0988c56cd}, !- Handle
  ,                                       !- Active Institution
  ,                                       !- Active Year
  ASHRAE,                                 !- Climate Zone Institution Name 1
  ANSI/ASHRAE Standard 169,               !- Climate Zone Document Name 1
  2006,                                   !- Climate Zone Document Year 1
  ,                                       !- Climate Zone Value 1
  CEC,                                    !- Climate Zone Institution Name 2
  California Climate Zone Descriptions,   !- Climate Zone Document Name 2
  1995,                                   !- Climate Zone Document Year 2
  ;                                       !- Climate Zone Value 2

OS:Facility,
  {01cd2b0a-8ee0-4ab6-a2fb-9f6c7d21094d}; !- Handle

OS:SimulationControl,
  {30e9303f-ed23-491c-b310-8ef7274e967f}, !- Handle
  ,                                       !- Do Zone Sizing Calculation
  ,                                       !- Do System Sizing Calculation
  ,                                       !- Do Plant Sizing Calculation
  No,                                     !- Run Simulation for Sizing Periods
  ,                                       !- Run Simulation for Weather File Run Periods
  ,                                       !- Loads Convergence Tolerance Value
  ,                                       !- Temperature Convergence Tolerance Value {deltaC}
  FullInteriorAndExterior,                !- Solar Distribution
  ,                                       !- Maximum Number of Warmup Days
  6;                                      !- Minimum Number of Warmup Days

OS:Sizing:Parameters,
  {c983733e-8a2d-428d-8380-a9c380f3d01c}, !- Handle
  1.25,                                   !- Heating Sizing Factor
  1.15;                                   !- Cooling Sizing Factor

OS:Timestep,
  {7a470c9d-4813-47b4-b276-325100b7b62f}, !- Handle
  4;                                      !- Number of Timesteps per Hour

OS:ShadowCalculation,
  {21696cf9-7a12-43bf-ac4c-50d1be8bf2fd}, !- Handle
  20,                                     !- Calculation Frequency
  15000;                                  !- Maximum Figures in Shadow Overlap Calculations

OS:HeatBalanceAlgorithm,
  {09f4a614-27ba-43a9-a0ac-4379e03c44e8}, !- Handle
  ConductionTransferFunction,             !- Algorithm
  200;                                    !- Surface Temperature Upper Limit {C}

OS:RunPeriod,
  {322b0b21-e55e-459f-b4f2-853d2d37fd9a}, !- Handle
  Run Period 1,                           !- Name
  1,                                      !- Begin Month
  1,                                      !- Begin Day of Month
  12,                                     !- End Month
  31,                                     !- End Day of Month
  ,                                       !- Use Weather File Holidays and Special Days
  ,                                       !- Use Weather File Daylight Saving Period
  ,                                       !- Apply Weekend Holiday Rule
  ,                                       !- Use Weather File Rain Indicators
  ,                                       !- Use Weather File Snow Indicators
  ;                                       !- Number of Times Runperiod to be Repeated

OS:LifeCycleCost:Parameters,
  {a8ce31c8-7533-4ad7-aa7a-5380b4197455}, !- Handle
  ,                                       !- Analysis Type
  ,                                       !- Discounting Convention
  ,                                       !- Inflation Approach
  ,                                       !- Real Discount Rate
  ,                                       !- Nominal Discount Rate
  ,                                       !- Inflation
  ,                                       !- Base Date Month
  ,                                       !- Base Date Year
  ,                                       !- Service Date Month
  ,                                       !- Service Date Year
  ;                                       !- Length of Study Period in Years

OS:SurfaceConvectionAlgorithm:Inside,
  {4156d7b7-d6a4-4fbd-9bed-8648d2234e35}, !- Handle
  TARP;                                   !- Algorithm

OS:SurfaceConvectionAlgorithm:Outside,
  {5882f6f2-d144-4d01-a423-31e62bf80fe5}, !- Handle
  TARP;                                   !- Algorithm

OS:WeatherFile,
  {71616eca-788f-4e56-bba5-a9b7de423727}, !- Handle
  NEW_ORLEANS,                            !- City
  LA,                                     !- State Province Region
  USA,                                    !- Country
  TMY2-12916,                             !- Data Source
  722315,                                 !- WMO Number
  29.98,                                  !- Latitude {deg}
  -90.25,                                 !- Longitude {deg}
  -6,                                     !- Time Zone {hr}
  3,                                      !- Elevation {m}
  file:///Users/dgoldwas/Documents/GitHub/OSEP_BESTTEST/measures/bestest_space_cooling_equipment_performance_tests/resources/CE300TM2.epw, !- Url
  96FC79DF;                               !- Checksum

OS:SizingPeriod:DesignDay,
  {b3e69c4e-831b-4cd7-9aec-980a681bf0df}, !- Handle
  Sizing Period Design Day 1,             !- Name
  23,                                     !- Maximum Dry-Bulb Temperature {C}
  0,                                      !- Daily Dry-Bulb Temperature Range {deltaC}
  23,                                     !- Humidity Indicating Conditions at Maximum Dry-Bulb
  31000,                                  !- Barometric Pressure {Pa}
  0,                                      !- Wind Speed {m/s}
  0,                                      !- Wind Direction {deg}
  0,                                      !- Sky Clearness
  ,                                       !- Rain Indicator
  0,                                      !- Snow Indicator
  1,                                      !- Day of Month
  1,                                      !- Month
  SummerDesignDay,                        !- Day Type
  0,                                      !- Daylight Saving Time Indicator
  WetBulb,                                !- Humidity Indicating Type
  ,                                       !- Humidity Indicating Day Schedule Name
  DefaultMultipliers,                     !- Dry-Bulb Temperature Range Modifier Type
  ,                                       !- Dry-Bulb Temperature Range Modifier Schedule Name
  AshraeClearSky;                         !- Solar Model Indicator

OS:SizingPeriod:DesignDay,
  {1c59b762-bad0-4f16-86d0-48835718626a}, !- Handle
  Sizing Period Design Day 2,             !- Name
  23,                                     !- Maximum Dry-Bulb Temperature {C}
  0,                                      !- Daily Dry-Bulb Temperature Range {deltaC}
  23,                                     !- Humidity Indicating Conditions at Maximum Dry-Bulb
  31000,                                  !- Barometric Pressure {Pa}
  0,                                      !- Wind Speed {m/s}
  0,                                      !- Wind Direction {deg}
  0,                                      !- Sky Clearness
  ,                                       !- Rain Indicator
  0,                                      !- Snow Indicator
  1,                                      !- Day of Month
  1,                                      !- Month
  WinterDesignDay,                        !- Day Type
  0,                                      !- Daylight Saving Time Indicator
  WetBulb,                                !- Humidity Indicating Type
  ,                                       !- Humidity Indicating Day Schedule Name
  DefaultMultipliers,                     !- Dry-Bulb Temperature Range Modifier Type
  ,                                       !- Dry-Bulb Temperature Range Modifier Schedule Name
  AshraeClearSky;                         !- Solar Model Indicator

OS:Building,
  {90ffd7a6-1b32-4446-bb66-1b32952d3aea}, !- Handle
  BESTEST Case CE400 - Temperature Control, !- Name
  ,                                       !- Building Sector Type
  0,                                      !- North Axis {deg}
  ,                                       !- Nominal Floor to Floor Height {m}
  ,                                       !- Space Type Name
  ,                                       !- Default Construction Set Name
  ,                                       !- Default Schedule Set Name
  ,                                       !- Standards Number of Stories
  ,                                       !- Standards Number of Above Ground Stories
  ,                                       !- Standards Building Type
  ,                                       !- Standards Number of Living Units
  ,                                       !- Relocatable
  ;                                       !- Nominal Floor to Ceiling Height {m}

OS:ThermalZone,
  {99f2a139-6d1f-488c-aeba-45bd18836b55}, !- Handle
  ZONE ONE,                               !- Name
  1,                                      !- Multiplier
  3,                                      !- Ceiling Height {m}
  588,                                    !- Volume {m3}
  ,                                       !- Floor Area {m2}
  ,                                       !- Zone Inside Convection Algorithm
  ,                                       !- Zone Outside Convection Algorithm
  ,                                       !- Zone Conditioning Equipment List Name
  {a4fc94d8-a962-4a31-b9f3-05544456ddcc}, !- Zone Air Inlet Port List
  {4cb9c16f-e8b2-41c3-b457-9511e35d2afa}, !- Zone Air Exhaust Port List
  {e618e3bc-29ce-400a-bd29-c4b191e711bf}, !- Zone Air Node Name
  {6645a182-3a16-4186-9906-81992e6d39fd}, !- Zone Return Air Node Name
  ,                                       !- Primary Daylighting Control Name
  ,                                       !- Fraction of Zone Controlled by Primary Daylighting Control
  ,                                       !- Secondary Daylighting Control Name
  ,                                       !- Fraction of Zone Controlled by Secondary Daylighting Control
  ,                                       !- Illuminance Map Name
  {fef8d9e4-eeb2-40ed-acd7-5d5606e6d3d8}, !- Group Rendering Name
  {49bfd99b-871e-4720-b328-508c92a6f060}, !- Thermostat Name
  No,                                     !- Use Ideal Air Loads
  ;                                       !- Humidistat Name

OS:Rendering:Color,
  {fef8d9e4-eeb2-40ed-acd7-5d5606e6d3d8}, !- Handle
  Rendering Color 2,                      !- Name
  127,                                    !- Rendering Red Value
  255,                                    !- Rendering Green Value
  212;                                    !- Rendering Blue Value

OS:Node,
  {d2d9d22f-47bc-4008-9c62-1bb01d7bf9f3}, !- Handle
  Node 1,                                 !- Name
  {e618e3bc-29ce-400a-bd29-c4b191e711bf}, !- Inlet Port
  ;                                       !- Outlet Port

OS:Connection,
  {e618e3bc-29ce-400a-bd29-c4b191e711bf}, !- Handle
  {53457379-6390-484a-af87-8ade65123e19}, !- Name
  {99f2a139-6d1f-488c-aeba-45bd18836b55}, !- Source Object
  11,                                     !- Outlet Port
  {d2d9d22f-47bc-4008-9c62-1bb01d7bf9f3}, !- Target Object
  2;                                      !- Inlet Port

OS:PortList,
  {a4fc94d8-a962-4a31-b9f3-05544456ddcc}, !- Handle
  Port List 1,                            !- Name
  {99f2a139-6d1f-488c-aeba-45bd18836b55}, !- HVAC Component
  {59f5ca5a-3c39-46e4-bc41-4ec0d8aaa802}; !- Port 1

OS:PortList,
  {4cb9c16f-e8b2-41c3-b457-9511e35d2afa}, !- Handle
  Port List 2,                            !- Name
  {99f2a139-6d1f-488c-aeba-45bd18836b55}; !- HVAC Component

OS:Sizing:Zone,
  {c5a3ba35-193f-463b-8ed8-27b2ba6200c8}, !- Handle
  {99f2a139-6d1f-488c-aeba-45bd18836b55}, !- Zone or ZoneList Name
  SupplyAirTemperature,                   !- Zone Cooling Design Supply Air Temperature Input Method
  14,                                     !- Zone Cooling Design Supply Air Temperature {C}
  11.11,                                  !- Zone Cooling Design Supply Air Temperature Difference {deltaC}
  SupplyAirTemperature,                   !- Zone Heating Design Supply Air Temperature Input Method
  40,                                     !- Zone Heating Design Supply Air Temperature {C}
  11.11,                                  !- Zone Heating Design Supply Air Temperature Difference {deltaC}
  0.0085,                                 !- Zone Cooling Design Supply Air Humidity Ratio {kg-H2O/kg-air}
  0.008,                                  !- Zone Heating Design Supply Air Humidity Ratio {kg-H2O/kg-air}
  ,                                       !- Zone Heating Sizing Factor
  ,                                       !- Zone Cooling Sizing Factor
  DesignDay,                              !- Cooling Design Air Flow Method
  ,                                       !- Cooling Design Air Flow Rate {m3/s}
  ,                                       !- Cooling Minimum Air Flow per Zone Floor Area {m3/s-m2}
  ,                                       !- Cooling Minimum Air Flow {m3/s}
  ,                                       !- Cooling Minimum Air Flow Fraction
  DesignDay,                              !- Heating Design Air Flow Method
  ,                                       !- Heating Design Air Flow Rate {m3/s}
  ,                                       !- Heating Maximum Air Flow per Zone Floor Area {m3/s-m2}
  ,                                       !- Heating Maximum Air Flow {m3/s}
  ,                                       !- Heating Maximum Air Flow Fraction
  ,                                       !- Design Zone Air Distribution Effectiveness in Cooling Mode
  ,                                       !- Design Zone Air Distribution Effectiveness in Heating Mode
  No,                                     !- Account for Dedicated Outdoor Air System
  NeutralSupplyAir,                       !- Dedicated Outdoor Air System Control Strategy
  autosize,                               !- Dedicated Outdoor Air Low Setpoint Temperature for Design {C}
  autosize;                               !- Dedicated Outdoor Air High Setpoint Temperature for Design {C}

OS:ZoneHVAC:EquipmentList,
  {6e6cbcf5-0bd0-4e74-8008-b8d3588bfadb}, !- Handle
  Zone HVAC Equipment List 1,             !- Name
  {99f2a139-6d1f-488c-aeba-45bd18836b55}, !- Thermal Zone
  {64d786d5-c79b-4386-a4ff-06340ea0a3ff}, !- Zone Equipment 1
  1,                                      !- Zone Equipment Cooling Sequence 1
  1;                                      !- Zone Equipment Heating or No-Load Sequence 1

OS:Space,
  {8b86cc49-fcad-4c4e-a60d-1e36e0dc2b5d}, !- Handle
  ZONE ONE Space,                         !- Name
  ,                                       !- Space Type Name
  ,                                       !- Default Construction Set Name
  ,                                       !- Default Schedule Set Name
  0,                                      !- Direction of Relative North {deg}
  0,                                      !- X Origin {m}
  0,                                      !- Y Origin {m}
  0,                                      !- Z Origin {m}
  ,                                       !- Building Story Name
  {99f2a139-6d1f-488c-aeba-45bd18836b55}, !- Thermal Zone Name
  ,                                       !- Part of Total Floor Area
  {cdc0ac1e-2dc2-41da-8fec-f69249d48b60}; !- Design Specification Outdoor Air Object Name

OS:Surface,
  {0e425d57-c4e2-4c9f-a8ec-eeecf3b3f7a9}, !- Handle
  ZONE SURFACE FLOOR,                     !- Name
  Floor,                                  !- Surface Type
  {2c8c2ddf-6c85-4fb1-8064-ba33360f9145}, !- Construction Name
  {8b86cc49-fcad-4c4e-a60d-1e36e0dc2b5d}, !- Space Name
  Outdoors,                               !- Outside Boundary Condition
  ,                                       !- Outside Boundary Condition Object
  SunExposed,                             !- Sun Exposure
  WindExposed,                            !- Wind Exposure
  0,                                      !- View Factor to Ground
  ,                                       !- Number of Vertices
  14, 14, 0,                              !- X,Y,Z Vertex 1 {m}
  14, 0, 0,                               !- X,Y,Z Vertex 2 {m}
  0, 0, 0,                                !- X,Y,Z Vertex 3 {m}
  0, 14, 0;                               !- X,Y,Z Vertex 4 {m}

OS:Construction,
  {2c8c2ddf-6c85-4fb1-8064-ba33360f9145}, !- Handle
  LTWALL,                                 !- Name
  {fee02482-7765-4583-8588-abde211489b4}, !- Surface Rendering Name
  {3eafe844-1829-4725-a0d9-199d476b082c}, !- Layer 1
  {1033f9eb-6424-4f11-b5ae-f542ef1eb7cc}; !- Layer 2

OS:Rendering:Color,
  {fee02482-7765-4583-8588-abde211489b4}, !- Handle
  Rendering Color 1,                      !- Name
  199,                                    !- Rendering Red Value
  21,                                     !- Rendering Green Value
  133;                                    !- Rendering Blue Value

OS:Material:NoMass,
  {3eafe844-1829-4725-a0d9-199d476b082c}, !- Handle
  INSULATION-EXT,                         !- Name
  VerySmooth,                             !- Roughness
  162.5,                                  !- Thermal Resistance {m2-K/W}
  0.9,                                    !- Thermal Absorptance
  0.1,                                    !- Solar Absorptance
  0.1;                                    !- Visible Absorptance

OS:Material:NoMass,
  {1033f9eb-6424-4f11-b5ae-f542ef1eb7cc}, !- Handle
  INSULATION-INT,                         !- Name
  VerySmooth,                             !- Roughness
  162.5,                                  !- Thermal Resistance {m2-K/W}
  0.9,                                    !- Thermal Absorptance
  0.6,                                    !- Solar Absorptance
  0.6;                                    !- Visible Absorptance

OS:Surface,
  {83ec3e31-eaf1-4817-989c-84bbc4ea8e4c}, !- Handle
  ZONE SURFACE NORTH,                     !- Name
  Wall,                                   !- Surface Type
  {2c8c2ddf-6c85-4fb1-8064-ba33360f9145}, !- Construction Name
  {8b86cc49-fcad-4c4e-a60d-1e36e0dc2b5d}, !- Space Name
  Outdoors,                               !- Outside Boundary Condition
  ,                                       !- Outside Boundary Condition Object
  SunExposed,                             !- Sun Exposure
  WindExposed,                            !- Wind Exposure
  0.5,                                    !- View Factor to Ground
  ,                                       !- Number of Vertices
  14, 14, 3,                              !- X,Y,Z Vertex 1 {m}
  14, 14, 0,                              !- X,Y,Z Vertex 2 {m}
  0, 14, 0,                               !- X,Y,Z Vertex 3 {m}
  0, 14, 3;                               !- X,Y,Z Vertex 4 {m}

OS:Surface,
  {46e28870-f7e5-4fb0-82ec-e07a2d7d7004}, !- Handle
  ZONE SURFACE EAST,                      !- Name
  Wall,                                   !- Surface Type
  {2c8c2ddf-6c85-4fb1-8064-ba33360f9145}, !- Construction Name
  {8b86cc49-fcad-4c4e-a60d-1e36e0dc2b5d}, !- Space Name
  Outdoors,                               !- Outside Boundary Condition
  ,                                       !- Outside Boundary Condition Object
  SunExposed,                             !- Sun Exposure
  WindExposed,                            !- Wind Exposure
  0.5,                                    !- View Factor to Ground
  ,                                       !- Number of Vertices
  14, 0, 3,                               !- X,Y,Z Vertex 1 {m}
  14, 0, 0,                               !- X,Y,Z Vertex 2 {m}
  14, 14, 0,                              !- X,Y,Z Vertex 3 {m}
  14, 14, 3;                              !- X,Y,Z Vertex 4 {m}

OS:Surface,
  {c4402793-eafd-43ad-af9c-44cce56295e3}, !- Handle
  ZONE SURFACE WEST,                      !- Name
  Wall,                                   !- Surface Type
  {2c8c2ddf-6c85-4fb1-8064-ba33360f9145}, !- Construction Name
  {8b86cc49-fcad-4c4e-a60d-1e36e0dc2b5d}, !- Space Name
  Outdoors,                               !- Outside Boundary Condition
  ,                                       !- Outside Boundary Condition Object
  SunExposed,                             !- Sun Exposure
  WindExposed,                            !- Wind Exposure
  0.5,                                    !- View Factor to Ground
  ,                                       !- Number of Vertices
  0, 14, 3,                               !- X,Y,Z Vertex 1 {m}
  0, 14, 0,                               !- X,Y,Z Vertex 2 {m}
  0, 0, 0,                                !- X,Y,Z Vertex 3 {m}
  0, 0, 3;                                !- X,Y,Z Vertex 4 {m}

OS:Surface,
  {a4bce579-c45c-4f58-a08d-ca8ff2eeefad}, !- Handle
  ZONE SURFACE SOUTH,                     !- Name
  Wall,                                   !- Surface Type
  {2c8c2ddf-6c85-4fb1-8064-ba33360f9145}, !- Construction Name
  {8b86cc49-fcad-4c4e-a60d-1e36e0dc2b5d}, !- Space Name
  Outdoors,                               !- Outside Boundary Condition
  ,                                       !- Outside Boundary Condition Object
  SunExposed,                             !- Sun Exposure
  WindExposed,                            !- Wind Exposure
  0.5,                                    !- View Factor to Ground
  ,                                       !- Number of Vertices
  0, 0, 3,                                !- X,Y,Z Vertex 1 {m}
  0, 0, 0,                                !- X,Y,Z Vertex 2 {m}
  14, 0, 0,                               !- X,Y,Z Vertex 3 {m}
  14, 0, 3;                               !- X,Y,Z Vertex 4 {m}

OS:Surface,
  {793bc1a6-c772-4ed9-a645-65b2e284afc7}, !- Handle
  ZONE SURFACE ROOF,                      !- Name
  RoofCeiling,                            !- Surface Type
  {2c8c2ddf-6c85-4fb1-8064-ba33360f9145}, !- Construction Name
  {8b86cc49-fcad-4c4e-a60d-1e36e0dc2b5d}, !- Space Name
  Outdoors,                               !- Outside Boundary Condition
  ,                                       !- Outside Boundary Condition Object
  SunExposed,                             !- Sun Exposure
  WindExposed,                            !- Wind Exposure
  0,                                      !- View Factor to Ground
  ,                                       !- Number of Vertices
  14, 0, 3,                               !- X,Y,Z Vertex 1 {m}
  14, 14, 3,                              !- X,Y,Z Vertex 2 {m}
  0, 14, 3,                               !- X,Y,Z Vertex 3 {m}
  0, 0, 3;                                !- X,Y,Z Vertex 4 {m}

OS:OtherEquipment,
  {c9341652-94e5-46c5-9532-7b435dfd42a9}, !- Handle
  CE_sens_mid_inst,                       !- Name
  {60c16a69-3ce9-4d0b-b330-fa9369a3c506}, !- Other Equipment Definition Name
  {8b86cc49-fcad-4c4e-a60d-1e36e0dc2b5d}, !- Space or SpaceType Name
  {62b17d89-cacc-46a7-abf1-90b46aa94505}; !- Schedule Name

OS:OtherEquipment:Definition,
  {60c16a69-3ce9-4d0b-b330-fa9369a3c506}, !- Handle
  CE_sens_mid,                            !- Name
  EquipmentLevel,                         !- Design Level Calculation Method
  18758,                                  !- Design Level {W}
  ,                                       !- Watts per Space Floor Area {W/m2}
  ;                                       !- Watts per Person {W/Person}

OS:Schedule:Ruleset,
  {62b17d89-cacc-46a7-abf1-90b46aa94505}, !- Handle
  CE300_sens_mid,                         !- Name
  {b70fed4e-5680-4024-892b-adcef61a76b3}, !- Schedule Type Limits Name
  {bd4be273-bfcc-470c-b643-2c57b834fd8a}; !- Default Day Schedule Name

OS:Schedule:Day,
  {bd4be273-bfcc-470c-b643-2c57b834fd8a}, !- Handle
  Schedule Day 7,                         !- Name
  {b70fed4e-5680-4024-892b-adcef61a76b3}, !- Schedule Type Limits Name
  ,                                       !- Interpolate to Timestep
  24,                                     !- Hour 1
  0,                                      !- Minute 1
  0.15625;                                !- Value Until Time 1

OS:Schedule:Rule,
  {1f96c32e-5ebc-442a-a4d0-fceb74748a5f}, !- Handle
  Schedule Rule 5,                        !- Name
  {62b17d89-cacc-46a7-abf1-90b46aa94505}, !- Schedule Ruleset Name
  0,                                      !- Rule Order
  {34aa3d74-a3db-4e9d-b976-fb8a8dfed764}, !- Day Schedule Name
  Yes,                                    !- Apply Sunday
  Yes,                                    !- Apply Monday
  Yes,                                    !- Apply Tuesday
  Yes,                                    !- Apply Wednesday
  Yes,                                    !- Apply Thursday
  Yes,                                    !- Apply Friday
  Yes,                                    !- Apply Saturday
  ,                                       !- Apply Holiday
  DateRange,                              !- Date Specification Type
  10,                                     !- Start Month
  19,                                     !- Start Day
  11,                                     !- End Month
  5;                                      !- End Day

OS:Schedule:Rule,
  {b5012097-f852-4ecb-a56b-41bc05dff26e}, !- Handle
  Schedule Rule 4,                        !- Name
  {62b17d89-cacc-46a7-abf1-90b46aa94505}, !- Schedule Ruleset Name
  1,                                      !- Rule Order
  {4c464578-80a1-462c-a5a5-81ae24e56d92}, !- Day Schedule Name
  Yes,                                    !- Apply Sunday
  Yes,                                    !- Apply Monday
  Yes,                                    !- Apply Tuesday
  Yes,                                    !- Apply Wednesday
  Yes,                                    !- Apply Thursday
  Yes,                                    !- Apply Friday
  Yes,                                    !- Apply Saturday
  ,                                       !- Apply Holiday
  DateRange,                              !- Date Specification Type
  10,                                     !- Start Month
  13,                                     !- Start Day
  10,                                     !- End Month
  18;                                     !- End Day

OS:Schedule:Rule,
  {b12f295b-429c-4783-87de-be5b0088d96e}, !- Handle
  Schedule Rule 3,                        !- Name
  {62b17d89-cacc-46a7-abf1-90b46aa94505}, !- Schedule Ruleset Name
  2,                                      !- Rule Order
  {cc072a30-1832-48dc-a31d-7009faaa7dcc}, !- Day Schedule Name
  Yes,                                    !- Apply Sunday
  Yes,                                    !- Apply Monday
  Yes,                                    !- Apply Tuesday
  Yes,                                    !- Apply Wednesday
  Yes,                                    !- Apply Thursday
  Yes,                                    !- Apply Friday
  Yes,                                    !- Apply Saturday
  ,                                       !- Apply Holiday
  DateRange,                              !- Date Specification Type
  4,                                      !- Start Month
  21,                                     !- Start Day
  10,                                     !- End Month
  12;                                     !- End Day

OS:Schedule:Rule,
  {66f8d9cf-e80f-49ad-9191-10b31798f6ab}, !- Handle
  Schedule Rule 2,                        !- Name
  {62b17d89-cacc-46a7-abf1-90b46aa94505}, !- Schedule Ruleset Name
  3,                                      !- Rule Order
  {b43ac07e-8d72-4b76-930a-683c2e41c0eb}, !- Day Schedule Name
  Yes,                                    !- Apply Sunday
  Yes,                                    !- Apply Monday
  Yes,                                    !- Apply Tuesday
  Yes,                                    !- Apply Wednesday
  Yes,                                    !- Apply Thursday
  Yes,                                    !- Apply Friday
  Yes,                                    !- Apply Saturday
  ,                                       !- Apply Holiday
  DateRange,                              !- Date Specification Type
  4,                                      !- Start Month
  12,                                     !- Start Day
  4,                                      !- End Month
  20;                                     !- End Day

OS:Schedule:Rule,
  {9c03d237-2dec-49a2-8d1d-264dfbee0465}, !- Handle
  Schedule Rule 1,                        !- Name
  {62b17d89-cacc-46a7-abf1-90b46aa94505}, !- Schedule Ruleset Name
  4,                                      !- Rule Order
  {1858679b-2777-4278-bf3d-c412b4be4750}, !- Day Schedule Name
  Yes,                                    !- Apply Sunday
  Yes,                                    !- Apply Monday
  Yes,                                    !- Apply Tuesday
  Yes,                                    !- Apply Wednesday
  Yes,                                    !- Apply Thursday