
OS:Version,
  {8a015359-5577-4555-a1f4-2619114b68bb}, !- Handle
  1.13.1;                                 !- Version Identifier

OS:Site,
  {bc874655-a927-4872-a278-1347186bb1d9}, !- Handle
  NEW_ORLEANS_LA_USA,                     !- Name
  29.98,                                  !- Latitude {deg}
  -90.25,                                 !- Longitude {deg}
  -6,                                     !- Time Zone {hr}
  3,                                      !- Elevation {m}
  Country;                                !- Terrain

OS:YearDescription,
  {9116ce1c-534f-4b3a-9d15-2bb1a805c7e1}, !- Handle
  2008,                                   !- Calendar Year
  ,                                       !- Day of Week for Start Day
  ;                                       !- Is Leap Year

OS:ClimateZones,
  {dd268d6b-2da7-4abc-b8ad-35d0988c56cd}, !- Handle
  ,                                       !- Active Institution
  ,                                       !- Active Year
  ASHRAE,                                 !- Climate Zone Institution Name 1
  ANSI/ASHRAE Standard 169,               !- Climate Zone Document Name 1
  2006,                                   !- Climate Zone Document Year 1
  ,                                       !- Climate Zone Value 1
  CEC,                                    !- Climate Zone Institution Name 2
  California Climate Zone Descriptions,   !- Climate Zone Document Name 2
  1995,                                   !- Climate Zone Document Year 2
  ;                                       !- Climate Zone Value 2

OS:Facility,
  {01cd2b0a-8ee0-4ab6-a2fb-9f6c7d21094d}; !- Handle

OS:SimulationControl,
  {30e9303f-ed23-491c-b310-8ef7274e967f}, !- Handle
  ,                                       !- Do Zone Sizing Calculation
  ,                                       !- Do System Sizing Calculation
  ,                                       !- Do Plant Sizing Calculation
  No,                                     !- Run Simulation for Sizing Periods
  ,                                       !- Run Simulation for Weather File Run Periods
  ,                                       !- Loads Convergence Tolerance Value
  ,                                       !- Temperature Convergence Tolerance Value {deltaC}
  FullInteriorAndExterior,                !- Solar Distribution
  ,                                       !- Maximum Number of Warmup Days
  6;                                      !- Minimum Number of Warmup Days

OS:Sizing:Parameters,
  {c983733e-8a2d-428d-8380-a9c380f3d01c}, !- Handle
  1.25,                                   !- Heating Sizing Factor
  1.15;                                   !- Cooling Sizing Factor

OS:Timestep,
  {7a470c9d-4813-47b4-b276-325100b7b62f}, !- Handle
  4;                                      !- Number of Timesteps per Hour

OS:ShadowCalculation,
  {21696cf9-7a12-43bf-ac4c-50d1be8bf2fd}, !- Handle
  20,                                     !- Calculation Frequency
  15000;                                  !- Maximum Figures in Shadow Overlap Calculations

OS:HeatBalanceAlgorithm,
  {09f4a614-27ba-43a9-a0ac-4379e03c44e8}, !- Handle
  ConductionTransferFunction,             !- Algorithm
  200;                                    !- Surface Temperature Upper Limit {C}

OS:RunPeriod,
  {322b0b21-e55e-459f-b4f2-853d2d37fd9a}, !- Handle
  Run Period 1,                           !- Name
  1,                                      !- Begin Month
  1,                                      !- Begin Day of Month
  12,                                     !- End Month
  31,                                     !- End Day of Month
  ,                                       !- Use Weather File Holidays and Special Days
  ,                                       !- Use Weather File Daylight Saving Period
  ,                                       !- Apply Weekend Holiday Rule
  ,                                       !- Use Weather File Rain Indicators
  ,                                       !- Use Weather File Snow Indicators
  ;                                       !- Number of Times Runperiod to be Repeated

OS:LifeCycleCost:Parameters,
  {a8ce31c8-7533-4ad7-aa7a-5380b4197455}, !- Handle
  ,                                       !- Analysis Type
  ,                                       !- Discounting Convention
  ,                                       !- Inflation Approach
  ,                                       !- Real Discount Rate
  ,                                       !- Nominal Discount Rate
  ,                                       !- Inflation
  ,                                       !- Base Date Month
  ,                                       !- Base Date Year
  ,                                       !- Service Date Month
  ,                                       !- Service Date Year
  ;                                       !- Length of Study Period in Years

OS:SurfaceConvectionAlgorithm:Inside,
  {fa1a8ee6-de88-44a8-abc2-eb1296e1ede8}, !- Handle
  TARP;                                   !- Algorithm

OS:SurfaceConvectionAlgorithm:Outside,
  {86c08033-56e2-4f18-9498-c9728e8c420e}, !- Handle
  TARP;                                   !- Algorithm

OS:WeatherFile,
  {7d58ec69-6715-40f9-9730-6525e69322e2}, !- Handle
  NEW_ORLEANS,                            !- City
  LA,                                     !- State Province Region
  USA,                                    !- Country
  TMY2-12916,                             !- Data Source
  722315,                                 !- WMO Number
  29.98,                                  !- Latitude {deg}
  -90.25,                                 !- Longitude {deg}
  -6,                                     !- Time Zone {hr}
  3,                                      !- Elevation {m}
  file:///Users/dgoldwas/Documents/GitHub/OSEP_BESTTEST/measures/bestest_space_cooling_equipment_performance_tests/resources/CE300TM2.epw, !- Url
  96FC79DF;                               !- Checksum

OS:SizingPeriod:DesignDay,
  {40c01e6d-81ae-4932-8b5a-de192620cb61}, !- Handle
  Sizing Period Design Day 1,             !- Name
  23,                                     !- Maximum Dry-Bulb Temperature {C}
  0,                                      !- Daily Dry-Bulb Temperature Range {deltaC}
  23,                                     !- Humidity Indicating Conditions at Maximum Dry-Bulb
  31000,                                  !- Barometric Pressure {Pa}
  0,                                      !- Wind Speed {m/s}
  0,                                      !- Wind Direction {deg}
  0,                                      !- Sky Clearness
  ,                                       !- Rain Indicator
  0,                                      !- Snow Indicator
  1,                                      !- Day of Month
  1,                                      !- Month
  SummerDesignDay,                        !- Day Type
  0,                                      !- Daylight Saving Time Indicator
  WetBulb,                                !- Humidity Indicating Type
  ,                                       !- Humidity Indicating Day Schedule Name
  DefaultMultipliers,                     !- Dry-Bulb Temperature Range Modifier Type
  ,                                       !- Dry-Bulb Temperature Range Modifier Schedule Name
  AshraeClearSky;                         !- Solar Model Indicator

OS:SizingPeriod:DesignDay,
  {776728b8-c25b-4f04-afdb-4b3277d416ff}, !- Handle
  Sizing Period Design Day 2,             !- Name
  23,                                     !- Maximum Dry-Bulb Temperature {C}
  0,                                      !- Daily Dry-Bulb Temperature Range {deltaC}
  23,                                     !- Humidity Indicating Conditions at Maximum Dry-Bulb
  31000,                                  !- Barometric Pressure {Pa}
  0,                                      !- Wind Speed {m/s}
  0,                                      !- Wind Direction {deg}
  0,                                      !- Sky Clearness
  ,                                       !- Rain Indicator
  0,                                      !- Snow Indicator
  1,                                      !- Day of Month
  1,                                      !- Month
  WinterDesignDay,                        !- Day Type
  0,                                      !- Daylight Saving Time Indicator
  WetBulb,                                !- Humidity Indicating Type
  ,                                       !- Humidity Indicating Day Schedule Name
  DefaultMultipliers,                     !- Dry-Bulb Temperature Range Modifier Type
  ,                                       !- Dry-Bulb Temperature Range Modifier Schedule Name
  AshraeClearSky;                         !- Solar Model Indicator

OS:Building,
  {d5b3bf76-4a15-4bb9-ba81-d7283f7aba43}, !- Handle
  BESTEST Case CE400 - Temperature Control, !- Name
  ,                                       !- Building Sector Type
  0,                                      !- North Axis {deg}
  ,                                       !- Nominal Floor to Floor Height {m}
  ,                                       !- Space Type Name
  ,                                       !- Default Construction Set Name
  ,                                       !- Default Schedule Set Name
  ,                                       !- Standards Number of Stories
  ,                                       !- Standards Number of Above Ground Stories
  ,                                       !- Standards Building Type
  ,                                       !- Standards Number of Living Units
  ,                                       !- Relocatable
  ;                                       !- Nominal Floor to Ceiling Height {m}

OS:ThermalZone,
  {7bb3de1b-6f91-47e6-8885-8b786fbf44a1}, !- Handle
  ZONE ONE,                               !- Name
  1,                                      !- Multiplier
  3,                                      !- Ceiling Height {m}
  588,                                    !- Volume {m3}
  ,                                       !- Floor Area {m2}
  ,                                       !- Zone Inside Convection Algorithm
  ,                                       !- Zone Outside Convection Algorithm
  ,                                       !- Zone Conditioning Equipment List Name
  {545d6743-abf7-462d-9f60-0d9d99a3d751}, !- Zone Air Inlet Port List
  {6d2aa209-3009-41b7-a595-460fad49fd8e}, !- Zone Air Exhaust Port List
  {b2e429f0-6378-47a0-b992-826e485fc65f}, !- Zone Air Node Name
  {ecdb1f2a-3ba2-4449-8064-972074065859}, !- Zone Return Air Node Name
  ,                                       !- Primary Daylighting Control Name
  ,                                       !- Fraction of Zone Controlled by Primary Daylighting Control
  ,                                       !- Secondary Daylighting Control Name
  ,                                       !- Fraction of Zone Controlled by Secondary Daylighting Control
  ,                                       !- Illuminance Map Name
  {90d6d6d7-f80a-442c-90e7-a75e4a59e598}, !- Group Rendering Name
  {dbfcc06a-0429-40e8-ac2f-42aa7a03451b}, !- Thermostat Name
  No,                                     !- Use Ideal Air Loads
  ;                                       !- Humidistat Name

OS:Rendering:Color,
  {90d6d6d7-f80a-442c-90e7-a75e4a59e598}, !- Handle
  Rendering Color 2,                      !- Name
  127,                                    !- Rendering Red Value
  255,                                    !- Rendering Green Value
  212;                                    !- Rendering Blue Value

OS:Node,
  {21a6b0a6-5a84-4b6b-b7c9-3d8aa0525be2}, !- Handle
  Node 1,                                 !- Name
  {b2e429f0-6378-47a0-b992-826e485fc65f}, !- Inlet Port
  ;                                       !- Outlet Port

OS:Connection,
  {b2e429f0-6378-47a0-b992-826e485fc65f}, !- Handle
  {56fac6c7-5ca5-4802-a52a-cbd7cd47e4a4}, !- Name
  {7bb3de1b-6f91-47e6-8885-8b786fbf44a1}, !- Source Object
  11,                                     !- Outlet Port
  {21a6b0a6-5a84-4b6b-b7c9-3d8aa0525be2}, !- Target Object
  2;                                      !- Inlet Port

OS:PortList,
  {545d6743-abf7-462d-9f60-0d9d99a3d751}, !- Handle
  Port List 1,                            !- Name
  {7bb3de1b-6f91-47e6-8885-8b786fbf44a1}, !- HVAC Component
  {98e12a78-0520-43a2-bc63-eebd02fa9a20}; !- Port 1

OS:PortList,
  {6d2aa209-3009-41b7-a595-460fad49fd8e}, !- Handle
  Port List 2,                            !- Name
  {7bb3de1b-6f91-47e6-8885-8b786fbf44a1}; !- HVAC Component

OS:Sizing:Zone,
  {606f2ec6-8842-4472-9345-a48450929969}, !- Handle
  {7bb3de1b-6f91-47e6-8885-8b786fbf44a1}, !- Zone or ZoneList Name
  SupplyAirTemperature,                   !- Zone Cooling Design Supply Air Temperature Input Method
  14,                                     !- Zone Cooling Design Supply Air Temperature {C}
  11.11,                                  !- Zone Cooling Design Supply Air Temperature Difference {deltaC}
  SupplyAirTemperature,                   !- Zone Heating Design Supply Air Temperature Input Method
  40,                                     !- Zone Heating Design Supply Air Temperature {C}
  11.11,                                  !- Zone Heating Design Supply Air Temperature Difference {deltaC}
  0.0085,                                 !- Zone Cooling Design Supply Air Humidity Ratio {kg-H2O/kg-air}
  0.008,                                  !- Zone Heating Design Supply Air Humidity Ratio {kg-H2O/kg-air}
  ,                                       !- Zone Heating Sizing Factor
  ,                                       !- Zone Cooling Sizing Factor
  DesignDay,                              !- Cooling Design Air Flow Method
  ,                                       !- Cooling Design Air Flow Rate {m3/s}
  ,                                       !- Cooling Minimum Air Flow per Zone Floor Area {m3/s-m2}
  ,                                       !- Cooling Minimum Air Flow {m3/s}
  ,                                       !- Cooling Minimum Air Flow Fraction
  DesignDay,                              !- Heating Design Air Flow Method
  ,                                       !- Heating Design Air Flow Rate {m3/s}
  ,                                       !- Heating Maximum Air Flow per Zone Floor Area {m3/s-m2}
  ,                                       !- Heating Maximum Air Flow {m3/s}
  ,                                       !- Heating Maximum Air Flow Fraction
  ,                                       !- Design Zone Air Distribution Effectiveness in Cooling Mode
  ,                                       !- Design Zone Air Distribution Effectiveness in Heating Mode
  No,                                     !- Account for Dedicated Outdoor Air System
  NeutralSupplyAir,                       !- Dedicated Outdoor Air System Control Strategy
  autosize,                               !- Dedicated Outdoor Air Low Setpoint Temperature for Design {C}
  autosize;                               !- Dedicated Outdoor Air High Setpoint Temperature for Design {C}

OS:ZoneHVAC:EquipmentList,
  {99a2a5f6-518a-4d9a-855b-df3e81193cbb}, !- Handle
  Zone HVAC Equipment List 1,             !- Name
  {7bb3de1b-6f91-47e6-8885-8b786fbf44a1}, !- Thermal Zone
  {b56b20a6-7138-476e-829c-bebcb8c449ee}, !- Zone Equipment 1
  1,                                      !- Zone Equipment Cooling Sequence 1
  1;                                      !- Zone Equipment Heating or No-Load Sequence 1

OS:Space,
  {47094b00-3929-4f8a-87a9-c332b49872da}, !- Handle
  ZONE ONE Space,                         !- Name
  ,                                       !- Space Type Name
  ,                                       !- Default Construction Set Name
  ,                                       !- Default Schedule Set Name
  0,                                      !- Direction of Relative North {deg}
  0,                                      !- X Origin {m}
  0,                                      !- Y Origin {m}
  0,                                      !- Z Origin {m}
  ,                                       !- Building Story Name
  {7bb3de1b-6f91-47e6-8885-8b786fbf44a1}, !- Thermal Zone Name
  ,                                       !- Part of Total Floor Area
  {5ae1bf86-3398-47ff-881a-28430da6f38d}; !- Design Specification Outdoor Air Object Name

OS:Surface,
  {5ac1612d-42bc-48cc-9937-328f8fec3b32}, !- Handle
  ZONE SURFACE FLOOR,                     !- Name
  Floor,                                  !- Surface Type
  {84dd76fa-b286-4697-a3b4-41e60be72f82}, !- Construction Name
  {47094b00-3929-4f8a-87a9-c332b49872da}, !- Space Name
  Outdoors,                               !- Outside Boundary Condition
  ,                                       !- Outside Boundary Condition Object
  SunExposed,                             !- Sun Exposure
  WindExposed,                            !- Wind Exposure
  0,                                      !- View Factor to Ground
  ,                                       !- Number of Vertices
  14, 14, 0,                              !- X,Y,Z Vertex 1 {m}
  14, 0, 0,                               !- X,Y,Z Vertex 2 {m}
  0, 0, 0,                                !- X,Y,Z Vertex 3 {m}
  0, 14, 0;                               !- X,Y,Z Vertex 4 {m}

OS:Construction,
  {84dd76fa-b286-4697-a3b4-41e60be72f82}, !- Handle
  LTWALL,                                 !- Name
  {74f9a20c-a84b-4693-b10a-8f6a71c8df40}, !- Surface Rendering Name
  {ec519876-37e8-4a30-8e43-e0957d552c5e}, !- Layer 1
  {9d153a90-1427-4aa7-b119-f58dfcea61ac}; !- Layer 2

OS:Rendering:Color,
  {74f9a20c-a84b-4693-b10a-8f6a71c8df40}, !- Handle
  Rendering Color 1,                      !- Name
  199,                                    !- Rendering Red Value
  21,                                     !- Rendering Green Value
  133;                                    !- Rendering Blue Value

OS:Material:NoMass,
  {ec519876-37e8-4a30-8e43-e0957d552c5e}, !- Handle
  INSULATION-EXT,                         !- Name
  VerySmooth,                             !- Roughness
  162.5,                                  !- Thermal Resistance {m2-K/W}
  0.9,                                    !- Thermal Absorptance
  0.1,                                    !- Solar Absorptance
  0.1;                                    !- Visible Absorptance

OS:Material:NoMass,
  {9d153a90-1427-4aa7-b119-f58dfcea61ac}, !- Handle
  INSULATION-INT,                         !- Name
  VerySmooth,                             !- Roughness
  162.5,                                  !- Thermal Resistance {m2-K/W}
  0.9,                                    !- Thermal Absorptance
  0.6,                                    !- Solar Absorptance
  0.6;                                    !- Visible Absorptance

OS:Surface,
  {a3e951f4-87aa-4292-9e3b-27e9026bb3b2}, !- Handle
  ZONE SURFACE NORTH,                     !- Name
  Wall,                                   !- Surface Type
  {84dd76fa-b286-4697-a3b4-41e60be72f82}, !- Construction Name
  {47094b00-3929-4f8a-87a9-c332b49872da}, !- Space Name
  Outdoors,                               !- Outside Boundary Condition
  ,                                       !- Outside Boundary Condition Object
  SunExposed,                             !- Sun Exposure
  WindExposed,                            !- Wind Exposure
  0.5,                                    !- View Factor to Ground
  ,                                       !- Number of Vertices
  14, 14, 3,                              !- X,Y,Z Vertex 1 {m}
  14, 14, 0,                              !- X,Y,Z Vertex 2 {m}
  0, 14, 0,                               !- X,Y,Z Vertex 3 {m}
  0, 14, 3;                               !- X,Y,Z Vertex 4 {m}

OS:Surface,
  {b379e706-0c4e-4db1-92fa-1405c74614c8}, !- Handle
  ZONE SURFACE EAST,                      !- Name
  Wall,                                   !- Surface Type
  {84dd76fa-b286-4697-a3b4-41e60be72f82}, !- Construction Name
  {47094b00-3929-4f8a-87a9-c332b49872da}, !- Space Name
  Outdoors,                               !- Outside Boundary Condition
  ,                                       !- Outside Boundary Condition Object
  SunExposed,                             !- Sun Exposure
  WindExposed,                            !- Wind Exposure
  0.5,                                    !- View Factor to Ground
  ,                                       !- Number of Vertices
  14, 0, 3,                               !- X,Y,Z Vertex 1 {m}
  14, 0, 0,                               !- X,Y,Z Vertex 2 {m}
  14, 14, 0,                              !- X,Y,Z Vertex 3 {m}
  14, 14, 3;                              !- X,Y,Z Vertex 4 {m}

OS:Surface,
  {e866dc1b-fd29-485f-824b-7bf92f37f30b}, !- Handle
  ZONE SURFACE WEST,                      !- Name
  Wall,                                   !- Surface Type
  {84dd76fa-b286-4697-a3b4-41e60be72f82}, !- Construction Name
  {47094b00-3929-4f8a-87a9-c332b49872da}, !- Space Name
  Outdoors,                               !- Outside Boundary Condition
  ,                                       !- Outside Boundary Condition Object
  SunExposed,                             !- Sun Exposure
  WindExposed,                            !- Wind Exposure
  0.5,                                    !- View Factor to Ground
  ,                                       !- Number of Vertices
  0, 14, 3,                               !- X,Y,Z Vertex 1 {m}
  0, 14, 0,                               !- X,Y,Z Vertex 2 {m}
  0, 0, 0,                                !- X,Y,Z Vertex 3 {m}
  0, 0, 3;                                !- X,Y,Z Vertex 4 {m}

OS:Surface,
  {73de4c3f-63d1-4b3b-ad2d-4df9d517d24d}, !- Handle
  ZONE SURFACE SOUTH,                     !- Name
  Wall,                                   !- Surface Type
  {84dd76fa-b286-4697-a3b4-41e60be72f82}, !- Construction Name
  {47094b00-3929-4f8a-87a9-c332b49872da}, !- Space Name
  Outdoors,                               !- Outside Boundary Condition
  ,                                       !- Outside Boundary Condition Object
  SunExposed,                             !- Sun Exposure
  WindExposed,                            !- Wind Exposure
  0.5,                                    !- View Factor to Ground
  ,                                       !- Number of Vertices
  0, 0, 3,                                !- X,Y,Z Vertex 1 {m}
  0, 0, 0,                                !- X,Y,Z Vertex 2 {m}
  14, 0, 0,                               !- X,Y,Z Vertex 3 {m}
  14, 0, 3;                               !- X,Y,Z Vertex 4 {m}

OS:Surface,
  {2ba4d84d-c3f2-45e4-a833-f4864393b3ac}, !- Handle
  ZONE SURFACE ROOF,                      !- Name
  RoofCeiling,                            !- Surface Type
  {84dd76fa-b286-4697-a3b4-41e60be72f82}, !- Construction Name
  {47094b00-3929-4f8a-87a9-c332b49872da}, !- Space Name
  Outdoors,                               !- Outside Boundary Condition
  ,                                       !- Outside Boundary Condition Object
  SunExposed,                             !- Sun Exposure
  WindExposed,                            !- Wind Exposure
  0,                                      !- View Factor to Ground
  ,                                       !- Number of Vertices
  14, 0, 3,                               !- X,Y,Z Vertex 1 {m}
  14, 14, 3,                              !- X,Y,Z Vertex 2 {m}
  0, 14, 3,                               !- X,Y,Z Vertex 3 {m}
  0, 0, 3;                                !- X,Y,Z Vertex 4 {m}

OS:OtherEquipment,
  {7c2c09e0-5efb-4583-b956-95069df2cc19}, !- Handle
  CE_sens_mid_inst,                       !- Name
  {8e37b308-35a4-41fa-8bd0-e17639b23eac}, !- Other Equipment Definition Name
  {47094b00-3929-4f8a-87a9-c332b49872da}, !- Space or SpaceType Name
  {529cab96-1134-4baf-aaf4-0ee2609308a8}; !- Schedule Name

OS:OtherEquipment:Definition,
  {8e37b308-35a4-41fa-8bd0-e17639b23eac}, !- Handle
  CE_sens_mid,                            !- Name
  EquipmentLevel,                         !- Design Level Calculation Method
  18758,                                  !- Design Level {W}
  ,                                       !- Watts per Space Floor Area {W/m2}
  ;                                       !- Watts per Person {W/Person}

OS:Schedule:Ruleset,
  {529cab96-1134-4baf-aaf4-0ee2609308a8}, !- Handle
  CE300_sens_mid,                         !- Name
  {17add5fe-d923-4500-953b-b8281f9beda9}, !- Schedule Type Limits Name
  {8b49799b-7743-4806-a3c0-d0d563dd9f2f}; !- Default Day Schedule Name

OS:Schedule:Day,
  {8b49799b-7743-4806-a3c0-d0d563dd9f2f}, !- Handle
  Schedule Day 7,                         !- Name
  {17add5fe-d923-4500-953b-b8281f9beda9}, !- Schedule Type Limits Name
  ,                                       !- Interpolate to Timestep
  24,                                     !- Hour 1
  0,                                      !- Minute 1
  0.15625;                                !- Value Until Time 1

OS:Schedule:Rule,
  {056dd9f1-de5b-448f-95db-a06e3a467676}, !- Handle
  Schedule Rule 5,                        !- Name
  {529cab96-1134-4baf-aaf4-0ee2609308a8}, !- Schedule Ruleset Name
  0,                                      !- Rule Order
  {cb884cfc-b652-4061-aed7-61e589db6329}, !- Day Schedule Name
  Yes,                                    !- Apply Sunday
  Yes,                                    !- Apply Monday
  Yes,                                    !- Apply Tuesday
  Yes,                                    !- Apply Wednesday
  Yes,                                    !- Apply Thursday
  Yes,                                    !- Apply Friday
  Yes,                                    !- Apply Saturday
  ,                                       !- Apply Holiday
  DateRange,                              !- Date Specification Type
  10,                                     !- Start Month
  19,                                     !- Start Day
  11,                                     !- End Month
  5;                                      !- End Day

OS:Schedule:Rule,
  {b50bd09a-1576-4f7d-9184-750888fa7a53}, !- Handle
  Schedule Rule 4,                        !- Name
  {529cab96-1134-4baf-aaf4-0ee2609308a8}, !- Schedule Ruleset Name
  1,                                      !- Rule Order
  {4f8de241-5aa9-4394-b093-69079c7f3b6c}, !- Day Schedule Name
  Yes,                                    !- Apply Sunday
  Yes,                                    !- Apply Monday
  Yes,                                    !- Apply Tuesday
  Yes,                                    !- Apply Wednesday
  Yes,                                    !- Apply Thursday
  Yes,                                    !- Apply Friday
  Yes,                                    !- Apply Saturday
  ,                                       !- Apply Holiday
  DateRange,                              !- Date Specification Type
  10,                                     !- Start Month
  13,                                     !- Start Day
  10,                                     !- End Month
  18;                                     !- End Day

OS:Schedule:Rule,
  {631f4499-a92c-432a-9670-112912b249f8}, !- Handle
  Schedule Rule 3,                        !- Name
  {529cab96-1134-4baf-aaf4-0ee2609308a8}, !- Schedule Ruleset Name
  2,                                      !- Rule Order
  {410c79f3-c747-46f3-8c1a-5df1458aeeb6}, !- Day Schedule Name
  Yes,                                    !- Apply Sunday
  Yes,                                    !- Apply Monday
  Yes,                                    !- Apply Tuesday
  Yes,                                    !- Apply Wednesday
  Yes,                                    !- Apply Thursday
  Yes,                                    !- Apply Friday
  Yes,                                    !- Apply Saturday
  ,                                       !- Apply Holiday
  DateRange,                              !- Date Specification Type
  4,                                      !- Start Month
  21,                                     !- Start Day
  10,                                     !- End Month
  12;                                     !- End Day

OS:Schedule:Rule,
  {18f12da7-39fa-4faf-887c-a1ecee68cb0c}, !- Handle
  Schedule Rule 2,                        !- Name
  {529cab96-1134-4baf-aaf4-0ee2609308a8}, !- Schedule Ruleset Name
  3,                                      !- Rule Order
  {cbfac5be-5e0f-4064-ab29-8386517b2468}, !- Day Schedule Name
  Yes,                                    !- Apply Sunday
  Yes,                                    !- Apply Monday
  Yes,                                    !- Apply Tuesday
  Yes,                                    !- Apply Wednesday
  Yes,                                    !- Apply Thursday
  Yes,                                    !- Apply Friday
  Yes,                                    !- Apply Saturday
  ,                                       !- Apply Holiday
  DateRange,                              !- Date Specification Type
  4,                                      !- Start Month
  12,                                     !- Start Day
  4,                                      !- End Month
  20;                                     !- End Day

OS:Schedule:Rule,
  {24b88062-dab3-4ec2-b87d-4cf1231940f3}, !- Handle
  Schedule Rule 1,                        !- Name
  {529cab96-1134-4baf-aaf4-0ee2609308a8}, !- Schedule Ruleset Name
  4,                                      !- Rule Order
  {24c78a91-7b7f-495c-b939-7a408c24f31f}, !- Day Schedule Name
  Yes,                                    !- Apply Sunday
  Yes,                                    !- Apply Monday
  Yes,                                    !- Apply Tuesday
  Yes,                                    !- Apply Wednesday
  Yes,                                    !- Apply Thursday