
OS:Version,
  {f423ee08-e925-4701-8c23-330082a25ddf}, !- Handle
  1.13.1;                                 !- Version Identifier

OS:Site,
  {bc874655-a927-4872-a278-1347186bb1d9}, !- Handle
  NEW_ORLEANS_LA_USA,                     !- Name
  29.98,                                  !- Latitude {deg}
  -90.25,                                 !- Longitude {deg}
  -6,                                     !- Time Zone {hr}
  3,                                      !- Elevation {m}
  Country;                                !- Terrain

OS:YearDescription,
  {9116ce1c-534f-4b3a-9d15-2bb1a805c7e1}, !- Handle
  2008,                                   !- Calendar Year
  ,                                       !- Day of Week for Start Day
  ;                                       !- Is Leap Year

OS:ClimateZones,
  {dd268d6b-2da7-4abc-b8ad-35d0988c56cd}, !- Handle
  ,                                       !- Active Institution
  ,                                       !- Active Year
  ASHRAE,                                 !- Climate Zone Institution Name 1
  ANSI/ASHRAE Standard 169,               !- Climate Zone Document Name 1
  2006,                                   !- Climate Zone Document Year 1
  ,                                       !- Climate Zone Value 1
  CEC,                                    !- Climate Zone Institution Name 2
  California Climate Zone Descriptions,   !- Climate Zone Document Name 2
  1995,                                   !- Climate Zone Document Year 2
  ;                                       !- Climate Zone Value 2

OS:Facility,
  {01cd2b0a-8ee0-4ab6-a2fb-9f6c7d21094d}; !- Handle

OS:SimulationControl,
  {30e9303f-ed23-491c-b310-8ef7274e967f}, !- Handle
  ,                                       !- Do Zone Sizing Calculation
  ,                                       !- Do System Sizing Calculation
  ,                                       !- Do Plant Sizing Calculation
  No,                                     !- Run Simulation for Sizing Periods
  ,                                       !- Run Simulation for Weather File Run Periods
  ,                                       !- Loads Convergence Tolerance Value
  ,                                       !- Temperature Convergence Tolerance Value {deltaC}
  FullInteriorAndExterior,                !- Solar Distribution
  ,                                       !- Maximum Number of Warmup Days
  6;                                      !- Minimum Number of Warmup Days

OS:Sizing:Parameters,
  {c983733e-8a2d-428d-8380-a9c380f3d01c}, !- Handle
  1.25,                                   !- Heating Sizing Factor
  1.15;                                   !- Cooling Sizing Factor

OS:Timestep,
  {7a470c9d-4813-47b4-b276-325100b7b62f}, !- Handle
  4;                                      !- Number of Timesteps per Hour

OS:ShadowCalculation,
  {21696cf9-7a12-43bf-ac4c-50d1be8bf2fd}, !- Handle
  20,                                     !- Calculation Frequency
  15000;                                  !- Maximum Figures in Shadow Overlap Calculations

OS:HeatBalanceAlgorithm,
  {09f4a614-27ba-43a9-a0ac-4379e03c44e8}, !- Handle
  ConductionTransferFunction,             !- Algorithm
  200;                                    !- Surface Temperature Upper Limit {C}

OS:RunPeriod,
  {322b0b21-e55e-459f-b4f2-853d2d37fd9a}, !- Handle
  Run Period 1,                           !- Name
  1,                                      !- Begin Month
  1,                                      !- Begin Day of Month
  12,                                     !- End Month
  31,                                     !- End Day of Month
  ,                                       !- Use Weather File Holidays and Special Days
  ,                                       !- Use Weather File Daylight Saving Period
  ,                                       !- Apply Weekend Holiday Rule
  ,                                       !- Use Weather File Rain Indicators
  ,                                       !- Use Weather File Snow Indicators
  ;                                       !- Number of Times Runperiod to be Repeated

OS:LifeCycleCost:Parameters,
  {a8ce31c8-7533-4ad7-aa7a-5380b4197455}, !- Handle
  ,                                       !- Analysis Type
  ,                                       !- Discounting Convention
  ,                                       !- Inflation Approach
  ,                                       !- Real Discount Rate
  ,                                       !- Nominal Discount Rate
  ,                                       !- Inflation
  ,                                       !- Base Date Month
  ,                                       !- Base Date Year
  ,                                       !- Service Date Month
  ,                                       !- Service Date Year
  ;                                       !- Length of Study Period in Years

OS:SurfaceConvectionAlgorithm:Inside,
  {56af3935-c98f-4330-8263-e0b46e2304da}, !- Handle
  TARP;                                   !- Algorithm

OS:SurfaceConvectionAlgorithm:Outside,
  {cf17f811-33cc-4b9d-8ee8-f4569f17bd26}, !- Handle
  TARP;                                   !- Algorithm

OS:WeatherFile,
  {bd78387e-67ef-401f-aa74-95b72c0e6733}, !- Handle
  NEW_ORLEANS,                            !- City
  LA,                                     !- State Province Region
  USA,                                    !- Country
  TMY2-12916,                             !- Data Source
  722315,                                 !- WMO Number
  29.98,                                  !- Latitude {deg}
  -90.25,                                 !- Longitude {deg}
  -6,                                     !- Time Zone {hr}
  3,                                      !- Elevation {m}
  file:///Users/dgoldwas/Documents/GitHub/OSEP_BESTTEST/measures/bestest_space_cooling_equipment_performance_tests/resources/CE300TM2.epw, !- Url
  96FC79DF;                               !- Checksum

OS:SizingPeriod:DesignDay,
  {f7aa067f-1c3b-4249-8dc8-9ab5ff78d732}, !- Handle
  Sizing Period Design Day 1,             !- Name
  23,                                     !- Maximum Dry-Bulb Temperature {C}
  0,                                      !- Daily Dry-Bulb Temperature Range {deltaC}
  23,                                     !- Humidity Indicating Conditions at Maximum Dry-Bulb
  31000,                                  !- Barometric Pressure {Pa}
  0,                                      !- Wind Speed {m/s}
  0,                                      !- Wind Direction {deg}
  0,                                      !- Sky Clearness
  ,                                       !- Rain Indicator
  0,                                      !- Snow Indicator
  1,                                      !- Day of Month
  1,                                      !- Month
  SummerDesignDay,                        !- Day Type
  0,                                      !- Daylight Saving Time Indicator
  WetBulb,                                !- Humidity Indicating Type
  ,                                       !- Humidity Indicating Day Schedule Name
  DefaultMultipliers,                     !- Dry-Bulb Temperature Range Modifier Type
  ,                                       !- Dry-Bulb Temperature Range Modifier Schedule Name
  AshraeClearSky;                         !- Solar Model Indicator

OS:SizingPeriod:DesignDay,
  {69433575-8499-4219-ac4a-2a648f6f7c75}, !- Handle
  Sizing Period Design Day 2,             !- Name
  23,                                     !- Maximum Dry-Bulb Temperature {C}
  0,                                      !- Daily Dry-Bulb Temperature Range {deltaC}
  23,                                     !- Humidity Indicating Conditions at Maximum Dry-Bulb
  31000,                                  !- Barometric Pressure {Pa}
  0,                                      !- Wind Speed {m/s}
  0,                                      !- Wind Direction {deg}
  0,                                      !- Sky Clearness
  ,                                       !- Rain Indicator
  0,                                      !- Snow Indicator
  1,                                      !- Day of Month
  1,                                      !- Month
  WinterDesignDay,                        !- Day Type
  0,                                      !- Daylight Saving Time Indicator
  WetBulb,                                !- Humidity Indicating Type
  ,                                       !- Humidity Indicating Day Schedule Name
  DefaultMultipliers,                     !- Dry-Bulb Temperature Range Modifier Type
  ,                                       !- Dry-Bulb Temperature Range Modifier Schedule Name
  AshraeClearSky;                         !- Solar Model Indicator

OS:Building,
  {9cc38afb-f876-4071-90ea-2638537a620d}, !- Handle
  BESTEST Case CE400 - Temperature Control, !- Name
  ,                                       !- Building Sector Type
  0,                                      !- North Axis {deg}
  ,                                       !- Nominal Floor to Floor Height {m}
  ,                                       !- Space Type Name
  ,                                       !- Default Construction Set Name
  ,                                       !- Default Schedule Set Name
  ,                                       !- Standards Number of Stories
  ,                                       !- Standards Number of Above Ground Stories
  ,                                       !- Standards Building Type
  ,                                       !- Standards Number of Living Units
  ,                                       !- Relocatable
  ;                                       !- Nominal Floor to Ceiling Height {m}

OS:ThermalZone,
  {c613b0e8-1fdf-4d5e-85d2-d0b585cb62f7}, !- Handle
  ZONE ONE,                               !- Name
  1,                                      !- Multiplier
  3,                                      !- Ceiling Height {m}
  588,                                    !- Volume {m3}
  ,                                       !- Floor Area {m2}
  ,                                       !- Zone Inside Convection Algorithm
  ,                                       !- Zone Outside Convection Algorithm
  ,                                       !- Zone Conditioning Equipment List Name
  {4e476b24-fca8-4ff0-9cd9-3b4d863f9d75}, !- Zone Air Inlet Port List
  {cdae8769-02df-4bf3-a813-201d38acb188}, !- Zone Air Exhaust Port List
  {51b769da-2f2a-45b6-9196-acdb6d6a2b71}, !- Zone Air Node Name
  {fcf7ac98-4e6d-457c-8683-12513b6645cc}, !- Zone Return Air Node Name
  ,                                       !- Primary Daylighting Control Name
  ,                                       !- Fraction of Zone Controlled by Primary Daylighting Control
  ,                                       !- Secondary Daylighting Control Name
  ,                                       !- Fraction of Zone Controlled by Secondary Daylighting Control
  ,                                       !- Illuminance Map Name
  {073cdbcc-c036-4985-84f5-0dfa58cebb30}, !- Group Rendering Name
  {4796c320-8bf6-4fd5-84e5-7b0dcf869d1b}, !- Thermostat Name
  No,                                     !- Use Ideal Air Loads
  ;                                       !- Humidistat Name

OS:Rendering:Color,
  {073cdbcc-c036-4985-84f5-0dfa58cebb30}, !- Handle
  Rendering Color 2,                      !- Name
  127,                                    !- Rendering Red Value
  255,                                    !- Rendering Green Value
  212;                                    !- Rendering Blue Value

OS:Node,
  {eb9745b5-c41f-44a7-8f22-ed766b2c464a}, !- Handle
  Node 1,                                 !- Name
  {51b769da-2f2a-45b6-9196-acdb6d6a2b71}, !- Inlet Port
  ;                                       !- Outlet Port

OS:Connection,
  {51b769da-2f2a-45b6-9196-acdb6d6a2b71}, !- Handle
  {65850d6d-76bc-415b-ab95-5e4d768d997e}, !- Name
  {c613b0e8-1fdf-4d5e-85d2-d0b585cb62f7}, !- Source Object
  11,                                     !- Outlet Port
  {eb9745b5-c41f-44a7-8f22-ed766b2c464a}, !- Target Object
  2;                                      !- Inlet Port

OS:PortList,
  {4e476b24-fca8-4ff0-9cd9-3b4d863f9d75}, !- Handle
  Port List 1,                            !- Name
  {c613b0e8-1fdf-4d5e-85d2-d0b585cb62f7}, !- HVAC Component
  {c0a4872c-e9d2-44d6-a2c7-15597ce87fdb}; !- Port 1

OS:PortList,
  {cdae8769-02df-4bf3-a813-201d38acb188}, !- Handle
  Port List 2,                            !- Name
  {c613b0e8-1fdf-4d5e-85d2-d0b585cb62f7}; !- HVAC Component

OS:Sizing:Zone,
  {92088035-a340-4f85-ac8f-f70b8dc26bf3}, !- Handle
  {c613b0e8-1fdf-4d5e-85d2-d0b585cb62f7}, !- Zone or ZoneList Name
  SupplyAirTemperature,                   !- Zone Cooling Design Supply Air Temperature Input Method
  14,                                     !- Zone Cooling Design Supply Air Temperature {C}
  11.11,                                  !- Zone Cooling Design Supply Air Temperature Difference {deltaC}
  SupplyAirTemperature,                   !- Zone Heating Design Supply Air Temperature Input Method
  40,                                     !- Zone Heating Design Supply Air Temperature {C}
  11.11,                                  !- Zone Heating Design Supply Air Temperature Difference {deltaC}
  0.0085,                                 !- Zone Cooling Design Supply Air Humidity Ratio {kg-H2O/kg-air}
  0.008,                                  !- Zone Heating Design Supply Air Humidity Ratio {kg-H2O/kg-air}
  ,                                       !- Zone Heating Sizing Factor
  ,                                       !- Zone Cooling Sizing Factor
  DesignDay,                              !- Cooling Design Air Flow Method
  ,                                       !- Cooling Design Air Flow Rate {m3/s}
  ,                                       !- Cooling Minimum Air Flow per Zone Floor Area {m3/s-m2}
  ,                                       !- Cooling Minimum Air Flow {m3/s}
  ,                                       !- Cooling Minimum Air Flow Fraction
  DesignDay,                              !- Heating Design Air Flow Method
  ,                                       !- Heating Design Air Flow Rate {m3/s}
  ,                                       !- Heating Maximum Air Flow per Zone Floor Area {m3/s-m2}
  ,                                       !- Heating Maximum Air Flow {m3/s}
  ,                                       !- Heating Maximum Air Flow Fraction
  ,                                       !- Design Zone Air Distribution Effectiveness in Cooling Mode
  ,                                       !- Design Zone Air Distribution Effectiveness in Heating Mode
  No,                                     !- Account for Dedicated Outdoor Air System
  NeutralSupplyAir,                       !- Dedicated Outdoor Air System Control Strategy
  autosize,                               !- Dedicated Outdoor Air Low Setpoint Temperature for Design {C}
  autosize;                               !- Dedicated Outdoor Air High Setpoint Temperature for Design {C}

OS:ZoneHVAC:EquipmentList,
  {2afa7d6d-c345-4e6c-b839-22ef74f23476}, !- Handle
  Zone HVAC Equipment List 1,             !- Name
  {c613b0e8-1fdf-4d5e-85d2-d0b585cb62f7}, !- Thermal Zone
  {5cafea43-a88a-408a-bd2a-5fd78f38219d}, !- Zone Equipment 1
  1,                                      !- Zone Equipment Cooling Sequence 1
  1;                                      !- Zone Equipment Heating or No-Load Sequence 1

OS:Space,
  {c77ea149-39ed-43d5-8f27-41133a452a91}, !- Handle
  ZONE ONE Space,                         !- Name
  ,                                       !- Space Type Name
  ,                                       !- Default Construction Set Name
  ,                                       !- Default Schedule Set Name
  0,                                      !- Direction of Relative North {deg}
  0,                                      !- X Origin {m}
  0,                                      !- Y Origin {m}
  0,                                      !- Z Origin {m}
  ,                                       !- Building Story Name
  {c613b0e8-1fdf-4d5e-85d2-d0b585cb62f7}, !- Thermal Zone Name
  ,                                       !- Part of Total Floor Area
  {caa4f31c-2fe9-44c9-a6c1-8ef219c0dc54}; !- Design Specification Outdoor Air Object Name

OS:Surface,
  {7dac9604-12aa-4629-9697-e019c845c60a}, !- Handle
  ZONE SURFACE FLOOR,                     !- Name
  Floor,                                  !- Surface Type
  {ae66cba5-f712-4025-b9d6-97ef475b0d5c}, !- Construction Name
  {c77ea149-39ed-43d5-8f27-41133a452a91}, !- Space Name
  Outdoors,                               !- Outside Boundary Condition
  ,                                       !- Outside Boundary Condition Object
  SunExposed,                             !- Sun Exposure
  WindExposed,                            !- Wind Exposure
  0,                                      !- View Factor to Ground
  ,                                       !- Number of Vertices
  14, 14, 0,                              !- X,Y,Z Vertex 1 {m}
  14, 0, 0,                               !- X,Y,Z Vertex 2 {m}
  0, 0, 0,                                !- X,Y,Z Vertex 3 {m}
  0, 14, 0;                               !- X,Y,Z Vertex 4 {m}

OS:Construction,
  {ae66cba5-f712-4025-b9d6-97ef475b0d5c}, !- Handle
  LTWALL,                                 !- Name
  {0d86a588-972d-4461-b868-f60921c2ae58}, !- Surface Rendering Name
  {61b9f2f1-3090-4d35-a132-d31988482a34}, !- Layer 1
  {857d1db5-7c99-4c87-a6aa-a6b559bc816a}; !- Layer 2

OS:Rendering:Color,
  {0d86a588-972d-4461-b868-f60921c2ae58}, !- Handle
  Rendering Color 1,                      !- Name
  199,                                    !- Rendering Red Value
  21,                                     !- Rendering Green Value
  133;                                    !- Rendering Blue Value

OS:Material:NoMass,
  {61b9f2f1-3090-4d35-a132-d31988482a34}, !- Handle
  INSULATION-EXT,                         !- Name
  VerySmooth,                             !- Roughness
  162.5,                                  !- Thermal Resistance {m2-K/W}
  0.9,                                    !- Thermal Absorptance
  0.1,                                    !- Solar Absorptance
  0.1;                                    !- Visible Absorptance

OS:Material:NoMass,
  {857d1db5-7c99-4c87-a6aa-a6b559bc816a}, !- Handle
  INSULATION-INT,                         !- Name
  VerySmooth,                             !- Roughness
  162.5,                                  !- Thermal Resistance {m2-K/W}
  0.9,                                    !- Thermal Absorptance
  0.6,                                    !- Solar Absorptance
  0.6;                                    !- Visible Absorptance

OS:Surface,
  {db01b79b-e2e9-40f0-854c-1e7abcef5bc9}, !- Handle
  ZONE SURFACE NORTH,                     !- Name
  Wall,                                   !- Surface Type
  {ae66cba5-f712-4025-b9d6-97ef475b0d5c}, !- Construction Name
  {c77ea149-39ed-43d5-8f27-41133a452a91}, !- Space Name
  Outdoors,                               !- Outside Boundary Condition
  ,                                       !- Outside Boundary Condition Object
  SunExposed,                             !- Sun Exposure
  WindExposed,                            !- Wind Exposure
  0.5,                                    !- View Factor to Ground
  ,                                       !- Number of Vertices
  14, 14, 3,                              !- X,Y,Z Vertex 1 {m}
  14, 14, 0,                              !- X,Y,Z Vertex 2 {m}
  0, 14, 0,                               !- X,Y,Z Vertex 3 {m}
  0, 14, 3;                               !- X,Y,Z Vertex 4 {m}

OS:Surface,
  {2fc8540e-0e9e-4825-b687-f0566d9ed682}, !- Handle
  ZONE SURFACE EAST,                      !- Name
  Wall,                                   !- Surface Type
  {ae66cba5-f712-4025-b9d6-97ef475b0d5c}, !- Construction Name
  {c77ea149-39ed-43d5-8f27-41133a452a91}, !- Space Name
  Outdoors,                               !- Outside Boundary Condition
  ,                                       !- Outside Boundary Condition Object
  SunExposed,                             !- Sun Exposure
  WindExposed,                            !- Wind Exposure
  0.5,                                    !- View Factor to Ground
  ,                                       !- Number of Vertices
  14, 0, 3,                               !- X,Y,Z Vertex 1 {m}
  14, 0, 0,                               !- X,Y,Z Vertex 2 {m}
  14, 14, 0,                              !- X,Y,Z Vertex 3 {m}
  14, 14, 3;                              !- X,Y,Z Vertex 4 {m}

OS:Surface,
  {742d33f2-d741-49b0-8bd6-11f056253868}, !- Handle
  ZONE SURFACE WEST,                      !- Name
  Wall,                                   !- Surface Type
  {ae66cba5-f712-4025-b9d6-97ef475b0d5c}, !- Construction Name
  {c77ea149-39ed-43d5-8f27-41133a452a91}, !- Space Name
  Outdoors,                               !- Outside Boundary Condition
  ,                                       !- Outside Boundary Condition Object
  SunExposed,                             !- Sun Exposure
  WindExposed,                            !- Wind Exposure
  0.5,                                    !- View Factor to Ground
  ,                                       !- Number of Vertices
  0, 14, 3,                               !- X,Y,Z Vertex 1 {m}
  0, 14, 0,                               !- X,Y,Z Vertex 2 {m}
  0, 0, 0,                                !- X,Y,Z Vertex 3 {m}
  0, 0, 3;                                !- X,Y,Z Vertex 4 {m}

OS:Surface,
  {36013f86-15f3-4406-a9b5-344985c5c964}, !- Handle
  ZONE SURFACE SOUTH,                     !- Name
  Wall,                                   !- Surface Type
  {ae66cba5-f712-4025-b9d6-97ef475b0d5c}, !- Construction Name
  {c77ea149-39ed-43d5-8f27-41133a452a91}, !- Space Name
  Outdoors,                               !- Outside Boundary Condition
  ,                                       !- Outside Boundary Condition Object
  SunExposed,                             !- Sun Exposure
  WindExposed,                            !- Wind Exposure
  0.5,                                    !- View Factor to Ground
  ,                                       !- Number of Vertices
  0, 0, 3,                                !- X,Y,Z Vertex 1 {m}
  0, 0, 0,                                !- X,Y,Z Vertex 2 {m}
  14, 0, 0,                               !- X,Y,Z Vertex 3 {m}
  14, 0, 3;                               !- X,Y,Z Vertex 4 {m}

OS:Surface,
  {d1ff6ace-9d11-4a2a-a967-42fbf755034d}, !- Handle
  ZONE SURFACE ROOF,                      !- Name
  RoofCeiling,                            !- Surface Type
  {ae66cba5-f712-4025-b9d6-97ef475b0d5c}, !- Construction Name
  {c77ea149-39ed-43d5-8f27-41133a452a91}, !- Space Name
  Outdoors,                               !- Outside Boundary Condition
  ,                                       !- Outside Boundary Condition Object
  SunExposed,                             !- Sun Exposure
  WindExposed,                            !- Wind Exposure
  0,                                      !- View Factor to Ground
  ,                                       !- Number of Vertices
  14, 0, 3,                               !- X,Y,Z Vertex 1 {m}
  14, 14, 3,                              !- X,Y,Z Vertex 2 {m}
  0, 14, 3,                               !- X,Y,Z Vertex 3 {m}
  0, 0, 3;                                !- X,Y,Z Vertex 4 {m}

OS:OtherEquipment,
  {7bdd97ee-90e0-4d4f-8555-b0127777728b}, !- Handle
  CE_sens_mid_inst,                       !- Name
  {76e6ebfa-b8cb-457a-b168-07c1187a5c78}, !- Other Equipment Definition Name
  {c77ea149-39ed-43d5-8f27-41133a452a91}, !- Space or SpaceType Name
  {17b250a6-aa10-44f1-8012-d7d33af4d33e}; !- Schedule Name

OS:OtherEquipment:Definition,
  {76e6ebfa-b8cb-457a-b168-07c1187a5c78}, !- Handle
  CE_sens_mid,                            !- Name
  EquipmentLevel,                         !- Design Level Calculation Method
  18758,                                  !- Design Level {W}
  ,                                       !- Watts per Space Floor Area {W/m2}
  ;                                       !- Watts per Person {W/Person}

OS:Schedule:Ruleset,
  {17b250a6-aa10-44f1-8012-d7d33af4d33e}, !- Handle
  CE300_sens_mid,                         !- Name
  {2a4a74ab-a921-4537-b83a-13eb5a722566}, !- Schedule Type Limits Name
  {48c46733-0a0d-4441-907e-8f673d71890c}; !- Default Day Schedule Name

OS:Schedule:Day,
  {48c46733-0a0d-4441-907e-8f673d71890c}, !- Handle
  Schedule Day 7,                         !- Name
  {2a4a74ab-a921-4537-b83a-13eb5a722566}, !- Schedule Type Limits Name
  ,                                       !- Interpolate to Timestep
  24,                                     !- Hour 1
  0,                                      !- Minute 1
  0.15625;                                !- Value Until Time 1

OS:Schedule:Rule,
  {1c3372c0-04a4-4df6-8d6d-2d4ab49c1c0e}, !- Handle
  Schedule Rule 5,                        !- Name
  {17b250a6-aa10-44f1-8012-d7d33af4d33e}, !- Schedule Ruleset Name
  0,                                      !- Rule Order
  {5626aeee-4ea7-4f24-b495-ad252b5a80d9}, !- Day Schedule Name
  Yes,                                    !- Apply Sunday
  Yes,                                    !- Apply Monday
  Yes,                                    !- Apply Tuesday
  Yes,                                    !- Apply Wednesday
  Yes,                                    !- Apply Thursday
  Yes,                                    !- Apply Friday
  Yes,                                    !- Apply Saturday
  ,                                       !- Apply Holiday
  DateRange,                              !- Date Specification Type
  10,                                     !- Start Month
  19,                                     !- Start Day
  11,                                     !- End Month
  5;                                      !- End Day

OS:Schedule:Rule,
  {e8c7c43c-93e7-4f00-a62f-c8b5857a999c}, !- Handle
  Schedule Rule 4,                        !- Name
  {17b250a6-aa10-44f1-8012-d7d33af4d33e}, !- Schedule Ruleset Name
  1,                                      !- Rule Order
  {83985d8a-d3ea-4374-b9c5-6ed6a80dafd9}, !- Day Schedule Name
  Yes,                                    !- Apply Sunday
  Yes,                                    !- Apply Monday
  Yes,                                    !- Apply Tuesday
  Yes,                                    !- Apply Wednesday
  Yes,                                    !- Apply Thursday
  Yes,                                    !- Apply Friday
  Yes,                                    !- Apply Saturday
  ,                                       !- Apply Holiday
  DateRange,                              !- Date Specification Type
  10,                                     !- Start Month
  13,                                     !- Start Day
  10,                                     !- End Month
  18;                                     !- End Day

OS:Schedule:Rule,
  {3fab21d3-448b-4d04-8140-da3ae88620ff}, !- Handle
  Schedule Rule 3,                        !- Name
  {17b250a6-aa10-44f1-8012-d7d33af4d33e}, !- Schedule Ruleset Name
  2,                                      !- Rule Order
  {d458716f-e11a-49d2-a88a-fd1f3238571d}, !- Day Schedule Name
  Yes,                                    !- Apply Sunday
  Yes,                                    !- Apply Monday
  Yes,                                    !- Apply Tuesday
  Yes,                                    !- Apply Wednesday
  Yes,                                    !- Apply Thursday
  Yes,                                    !- Apply Friday
  Yes,                                    !- Apply Saturday
  ,                                       !- Apply Holiday
  DateRange,                              !- Date Specification Type
  4,                                      !- Start Month
  21,                                     !- Start Day
  10,                                     !- End Month
  12;                                     !- End Day

OS:Schedule:Rule,
  {295a3192-fdda-4aac-b947-705f646baf05}, !- Handle
  Schedule Rule 2,                        !- Name
  {17b250a6-aa10-44f1-8012-d7d33af4d33e}, !- Schedule Ruleset Name
  3,                                      !- Rule Order
  {9c230672-e697-4aa1-96e2-a89dc2632ec5}, !- Day Schedule Name
  Yes,                                    !- Apply Sunday
  Yes,                                    !- Apply Monday
  Yes,                                    !- Apply Tuesday
  Yes,                                    !- Apply Wednesday
  Yes,                                    !- Apply Thursday
  Yes,                                    !- Apply Friday
  Yes,                                    !- Apply Saturday
  ,                                       !- Apply Holiday
  DateRange,                              !- Date Specification Type
  4,                                      !- Start Month
  12,                                     !- Start Day
  4,                                      !- End Month
  20;                                     !- End Day

OS:Schedule:Rule,
  {9b1446ca-45bf-4580-bd0c-9169aa5e90cf}, !- Handle
  Schedule Rule 1,                        !- Name
  {17b250a6-aa10-44f1-8012-d7d33af4d33e}, !- Schedule Ruleset Name
  4,                                      !- Rule Order
  {32f522ab-71b8-4df3-b655-26002c36eb53}, !- Day Schedule Name
  Yes,                                    !- Apply Sunday
  Yes,                                    !- Apply Monday
  Yes,                                    !- Apply Tuesday
  Yes,                                    !- Apply Wednesday
  Yes,                                    !- Apply Thursday