
OS:Version,
  {343259c5-698d-463d-9df9-053a7f2ee946}, !- Handle
  1.13.1;                                 !- Version Identifier

OS:Site,
  {bc874655-a927-4872-a278-1347186bb1d9}, !- Handle
  NEW_ORLEANS_LA_USA,                     !- Name
  29.98,                                  !- Latitude {deg}
  -90.25,                                 !- Longitude {deg}
  -6,                                     !- Time Zone {hr}
  3,                                      !- Elevation {m}
  Country;                                !- Terrain

OS:YearDescription,
  {9116ce1c-534f-4b3a-9d15-2bb1a805c7e1}, !- Handle
  2008,                                   !- Calendar Year
  ,                                       !- Day of Week for Start Day
  ;                                       !- Is Leap Year

OS:ClimateZones,
  {dd268d6b-2da7-4abc-b8ad-35d0988c56cd}, !- Handle
  ,                                       !- Active Institution
  ,                                       !- Active Year
  ASHRAE,                                 !- Climate Zone Institution Name 1
  ANSI/ASHRAE Standard 169,               !- Climate Zone Document Name 1
  2006,                                   !- Climate Zone Document Year 1
  ,                                       !- Climate Zone Value 1
  CEC,                                    !- Climate Zone Institution Name 2
  California Climate Zone Descriptions,   !- Climate Zone Document Name 2
  1995,                                   !- Climate Zone Document Year 2
  ;                                       !- Climate Zone Value 2

OS:Facility,
  {01cd2b0a-8ee0-4ab6-a2fb-9f6c7d21094d}; !- Handle

OS:SimulationControl,
  {30e9303f-ed23-491c-b310-8ef7274e967f}, !- Handle
  ,                                       !- Do Zone Sizing Calculation
  ,                                       !- Do System Sizing Calculation
  ,                                       !- Do Plant Sizing Calculation
  No,                                     !- Run Simulation for Sizing Periods
  ,                                       !- Run Simulation for Weather File Run Periods
  ,                                       !- Loads Convergence Tolerance Value
  ,                                       !- Temperature Convergence Tolerance Value {deltaC}
  FullInteriorAndExterior,                !- Solar Distribution
  ,                                       !- Maximum Number of Warmup Days
  6;                                      !- Minimum Number of Warmup Days

OS:Sizing:Parameters,
  {c983733e-8a2d-428d-8380-a9c380f3d01c}, !- Handle
  1.25,                                   !- Heating Sizing Factor
  1.15;                                   !- Cooling Sizing Factor

OS:Timestep,
  {7a470c9d-4813-47b4-b276-325100b7b62f}, !- Handle
  4;                                      !- Number of Timesteps per Hour

OS:ShadowCalculation,
  {21696cf9-7a12-43bf-ac4c-50d1be8bf2fd}, !- Handle
  20,                                     !- Calculation Frequency
  15000;                                  !- Maximum Figures in Shadow Overlap Calculations

OS:HeatBalanceAlgorithm,
  {09f4a614-27ba-43a9-a0ac-4379e03c44e8}, !- Handle
  ConductionTransferFunction,             !- Algorithm
  200;                                    !- Surface Temperature Upper Limit {C}

OS:RunPeriod,
  {322b0b21-e55e-459f-b4f2-853d2d37fd9a}, !- Handle
  Run Period 1,                           !- Name
  1,                                      !- Begin Month
  1,                                      !- Begin Day of Month
  12,                                     !- End Month
  31,                                     !- End Day of Month
  ,                                       !- Use Weather File Holidays and Special Days
  ,                                       !- Use Weather File Daylight Saving Period
  ,                                       !- Apply Weekend Holiday Rule
  ,                                       !- Use Weather File Rain Indicators
  ,                                       !- Use Weather File Snow Indicators
  ;                                       !- Number of Times Runperiod to be Repeated

OS:LifeCycleCost:Parameters,
  {a8ce31c8-7533-4ad7-aa7a-5380b4197455}, !- Handle
  ,                                       !- Analysis Type
  ,                                       !- Discounting Convention
  ,                                       !- Inflation Approach
  ,                                       !- Real Discount Rate
  ,                                       !- Nominal Discount Rate
  ,                                       !- Inflation
  ,                                       !- Base Date Month
  ,                                       !- Base Date Year
  ,                                       !- Service Date Month
  ,                                       !- Service Date Year
  ;                                       !- Length of Study Period in Years

OS:SurfaceConvectionAlgorithm:Inside,
  {acd987f7-fb17-4d3b-a718-33ae492e74fd}, !- Handle
  TARP;                                   !- Algorithm

OS:SurfaceConvectionAlgorithm:Outside,
  {10956141-1a00-4182-a33d-632d869ad637}, !- Handle
  TARP;                                   !- Algorithm

OS:WeatherFile,
  {956102e2-f4ab-4cea-a6bb-6f1ddb5ebc62}, !- Handle
  NEW_ORLEANS,                            !- City
  LA,                                     !- State Province Region
  USA,                                    !- Country
  TMY2-12916,                             !- Data Source
  722315,                                 !- WMO Number
  29.98,                                  !- Latitude {deg}
  -90.25,                                 !- Longitude {deg}
  -6,                                     !- Time Zone {hr}
  3,                                      !- Elevation {m}
  file:///Users/dgoldwas/Documents/GitHub/OSEP_BESTTEST/measures/bestest_space_cooling_equipment_performance_tests/resources/CE300TM2.epw, !- Url
  96FC79DF;                               !- Checksum

OS:SizingPeriod:DesignDay,
  {2ac393d1-f6b9-4149-b323-dfb859da974b}, !- Handle
  Sizing Period Design Day 1,             !- Name
  23,                                     !- Maximum Dry-Bulb Temperature {C}
  0,                                      !- Daily Dry-Bulb Temperature Range {deltaC}
  23,                                     !- Humidity Indicating Conditions at Maximum Dry-Bulb
  31000,                                  !- Barometric Pressure {Pa}
  0,                                      !- Wind Speed {m/s}
  0,                                      !- Wind Direction {deg}
  0,                                      !- Sky Clearness
  ,                                       !- Rain Indicator
  0,                                      !- Snow Indicator
  1,                                      !- Day of Month
  1,                                      !- Month
  SummerDesignDay,                        !- Day Type
  0,                                      !- Daylight Saving Time Indicator
  WetBulb,                                !- Humidity Indicating Type
  ,                                       !- Humidity Indicating Day Schedule Name
  DefaultMultipliers,                     !- Dry-Bulb Temperature Range Modifier Type
  ,                                       !- Dry-Bulb Temperature Range Modifier Schedule Name
  AshraeClearSky;                         !- Solar Model Indicator

OS:SizingPeriod:DesignDay,
  {7cf238c9-8505-4cfd-a583-c26844d98e41}, !- Handle
  Sizing Period Design Day 2,             !- Name
  23,                                     !- Maximum Dry-Bulb Temperature {C}
  0,                                      !- Daily Dry-Bulb Temperature Range {deltaC}
  23,                                     !- Humidity Indicating Conditions at Maximum Dry-Bulb
  31000,                                  !- Barometric Pressure {Pa}
  0,                                      !- Wind Speed {m/s}
  0,                                      !- Wind Direction {deg}
  0,                                      !- Sky Clearness
  ,                                       !- Rain Indicator
  0,                                      !- Snow Indicator
  1,                                      !- Day of Month
  1,                                      !- Month
  WinterDesignDay,                        !- Day Type
  0,                                      !- Daylight Saving Time Indicator
  WetBulb,                                !- Humidity Indicating Type
  ,                                       !- Humidity Indicating Day Schedule Name
  DefaultMultipliers,                     !- Dry-Bulb Temperature Range Modifier Type
  ,                                       !- Dry-Bulb Temperature Range Modifier Schedule Name
  AshraeClearSky;                         !- Solar Model Indicator

OS:Building,
  {cab16556-b28e-4f85-9f67-c51b1a2b3fb0}, !- Handle
  BESTEST Case CE500 - Base Case (0% OA), !- Name
  ,                                       !- Building Sector Type
  0,                                      !- North Axis {deg}
  ,                                       !- Nominal Floor to Floor Height {m}
  ,                                       !- Space Type Name
  ,                                       !- Default Construction Set Name
  ,                                       !- Default Schedule Set Name
  ,                                       !- Standards Number of Stories
  ,                                       !- Standards Number of Above Ground Stories
  ,                                       !- Standards Building Type
  ,                                       !- Standards Number of Living Units
  ,                                       !- Relocatable
  ;                                       !- Nominal Floor to Ceiling Height {m}

OS:ThermalZone,
  {e294fbcc-ab02-4107-aa8f-b533fcf1b189}, !- Handle
  ZONE ONE,                               !- Name
  1,                                      !- Multiplier
  3,                                      !- Ceiling Height {m}
  588,                                    !- Volume {m3}
  ,                                       !- Floor Area {m2}
  ,                                       !- Zone Inside Convection Algorithm
  ,                                       !- Zone Outside Convection Algorithm
  ,                                       !- Zone Conditioning Equipment List Name
  {ecc86f14-c038-4af8-b5fd-821a5e30f352}, !- Zone Air Inlet Port List
  {81824254-c8a9-4888-b9d7-bd4713503117}, !- Zone Air Exhaust Port List
  {508cdfea-3f12-458d-96ff-94554fa62fc0}, !- Zone Air Node Name
  {baba9484-29ed-425f-9581-89fb3805f34f}, !- Zone Return Air Node Name
  ,                                       !- Primary Daylighting Control Name
  ,                                       !- Fraction of Zone Controlled by Primary Daylighting Control
  ,                                       !- Secondary Daylighting Control Name
  ,                                       !- Fraction of Zone Controlled by Secondary Daylighting Control
  ,                                       !- Illuminance Map Name
  {708de482-678b-48ee-a38f-c676a579870d}, !- Group Rendering Name
  {25977276-e927-40ce-8f48-8f8ee2dc4a05}, !- Thermostat Name
  No,                                     !- Use Ideal Air Loads
  ;                                       !- Humidistat Name

OS:Rendering:Color,
  {708de482-678b-48ee-a38f-c676a579870d}, !- Handle
  Rendering Color 2,                      !- Name
  127,                                    !- Rendering Red Value
  255,                                    !- Rendering Green Value
  212;                                    !- Rendering Blue Value

OS:Node,
  {fb0e667a-e45b-4bfc-9309-869769f41e88}, !- Handle
  Node 1,                                 !- Name
  {508cdfea-3f12-458d-96ff-94554fa62fc0}, !- Inlet Port
  ;                                       !- Outlet Port

OS:Connection,
  {508cdfea-3f12-458d-96ff-94554fa62fc0}, !- Handle
  {5e0f5a02-bc42-4276-9ad0-5f95a4d0b556}, !- Name
  {e294fbcc-ab02-4107-aa8f-b533fcf1b189}, !- Source Object
  11,                                     !- Outlet Port
  {fb0e667a-e45b-4bfc-9309-869769f41e88}, !- Target Object
  2;                                      !- Inlet Port

OS:PortList,
  {ecc86f14-c038-4af8-b5fd-821a5e30f352}, !- Handle
  Port List 1,                            !- Name
  {e294fbcc-ab02-4107-aa8f-b533fcf1b189}, !- HVAC Component
  {1e53d039-2921-40b4-95a3-a055f74e4aa3}; !- Port 1

OS:PortList,
  {81824254-c8a9-4888-b9d7-bd4713503117}, !- Handle
  Port List 2,                            !- Name
  {e294fbcc-ab02-4107-aa8f-b533fcf1b189}; !- HVAC Component

OS:Sizing:Zone,
  {3bf27919-b550-4f71-9630-0798682340cb}, !- Handle
  {e294fbcc-ab02-4107-aa8f-b533fcf1b189}, !- Zone or ZoneList Name
  SupplyAirTemperature,                   !- Zone Cooling Design Supply Air Temperature Input Method
  14,                                     !- Zone Cooling Design Supply Air Temperature {C}
  11.11,                                  !- Zone Cooling Design Supply Air Temperature Difference {deltaC}
  SupplyAirTemperature,                   !- Zone Heating Design Supply Air Temperature Input Method
  40,                                     !- Zone Heating Design Supply Air Temperature {C}
  11.11,                                  !- Zone Heating Design Supply Air Temperature Difference {deltaC}
  0.0085,                                 !- Zone Cooling Design Supply Air Humidity Ratio {kg-H2O/kg-air}
  0.008,                                  !- Zone Heating Design Supply Air Humidity Ratio {kg-H2O/kg-air}
  ,                                       !- Zone Heating Sizing Factor
  ,                                       !- Zone Cooling Sizing Factor
  DesignDay,                              !- Cooling Design Air Flow Method
  ,                                       !- Cooling Design Air Flow Rate {m3/s}
  ,                                       !- Cooling Minimum Air Flow per Zone Floor Area {m3/s-m2}
  ,                                       !- Cooling Minimum Air Flow {m3/s}
  ,                                       !- Cooling Minimum Air Flow Fraction
  DesignDay,                              !- Heating Design Air Flow Method
  ,                                       !- Heating Design Air Flow Rate {m3/s}
  ,                                       !- Heating Maximum Air Flow per Zone Floor Area {m3/s-m2}
  ,                                       !- Heating Maximum Air Flow {m3/s}
  ,                                       !- Heating Maximum Air Flow Fraction
  ,                                       !- Design Zone Air Distribution Effectiveness in Cooling Mode
  ,                                       !- Design Zone Air Distribution Effectiveness in Heating Mode
  No,                                     !- Account for Dedicated Outdoor Air System
  NeutralSupplyAir,                       !- Dedicated Outdoor Air System Control Strategy
  autosize,                               !- Dedicated Outdoor Air Low Setpoint Temperature for Design {C}
  autosize;                               !- Dedicated Outdoor Air High Setpoint Temperature for Design {C}

OS:ZoneHVAC:EquipmentList,
  {5a8aeb35-4fc4-4253-895a-d0b6bb08a63c}, !- Handle
  Zone HVAC Equipment List 1,             !- Name
  {e294fbcc-ab02-4107-aa8f-b533fcf1b189}, !- Thermal Zone
  {941a10ff-cb8f-47a4-804e-1350017eb4c4}, !- Zone Equipment 1
  1,                                      !- Zone Equipment Cooling Sequence 1
  1;                                      !- Zone Equipment Heating or No-Load Sequence 1

OS:Space,
  {3c320e2c-5ce4-4807-974f-c51501a17d47}, !- Handle
  ZONE ONE Space,                         !- Name
  ,                                       !- Space Type Name
  ,                                       !- Default Construction Set Name
  ,                                       !- Default Schedule Set Name
  0,                                      !- Direction of Relative North {deg}
  0,                                      !- X Origin {m}
  0,                                      !- Y Origin {m}
  0,                                      !- Z Origin {m}
  ,                                       !- Building Story Name
  {e294fbcc-ab02-4107-aa8f-b533fcf1b189}; !- Thermal Zone Name

OS:Surface,
  {12b359f8-7709-4821-bbd2-0f0317ed349a}, !- Handle
  ZONE SURFACE FLOOR,                     !- Name
  Floor,                                  !- Surface Type
  {c31bd671-d6b5-4c34-aa86-a1637cb2e7fd}, !- Construction Name
  {3c320e2c-5ce4-4807-974f-c51501a17d47}, !- Space Name
  Outdoors,                               !- Outside Boundary Condition
  ,                                       !- Outside Boundary Condition Object
  SunExposed,                             !- Sun Exposure
  WindExposed,                            !- Wind Exposure
  0,                                      !- View Factor to Ground
  ,                                       !- Number of Vertices
  14, 14, 0,                              !- X,Y,Z Vertex 1 {m}
  14, 0, 0,                               !- X,Y,Z Vertex 2 {m}
  0, 0, 0,                                !- X,Y,Z Vertex 3 {m}
  0, 14, 0;                               !- X,Y,Z Vertex 4 {m}

OS:Construction,
  {c31bd671-d6b5-4c34-aa86-a1637cb2e7fd}, !- Handle
  LTWALL,                                 !- Name
  {14f0d11f-8fb8-4ece-80ef-19a7e285fb5a}, !- Surface Rendering Name
  {3fc26938-8c1d-4977-bbe2-ef18b945f3b3}, !- Layer 1
  {232b8d25-187c-438c-9311-3e28e8ea1816}; !- Layer 2

OS:Rendering:Color,
  {14f0d11f-8fb8-4ece-80ef-19a7e285fb5a}, !- Handle
  Rendering Color 1,                      !- Name
  199,                                    !- Rendering Red Value
  21,                                     !- Rendering Green Value
  133;                                    !- Rendering Blue Value

OS:Material:NoMass,
  {3fc26938-8c1d-4977-bbe2-ef18b945f3b3}, !- Handle
  INSULATION-EXT,                         !- Name
  VerySmooth,                             !- Roughness
  162.5,                                  !- Thermal Resistance {m2-K/W}
  0.9,                                    !- Thermal Absorptance
  0.1,                                    !- Solar Absorptance
  0.1;                                    !- Visible Absorptance

OS:Material:NoMass,
  {232b8d25-187c-438c-9311-3e28e8ea1816}, !- Handle
  INSULATION-INT,                         !- Name
  VerySmooth,                             !- Roughness
  162.5,                                  !- Thermal Resistance {m2-K/W}
  0.9,                                    !- Thermal Absorptance
  0.6,                                    !- Solar Absorptance
  0.6;                                    !- Visible Absorptance

OS:Surface,
  {7e5ac88a-ef52-434b-9762-43c10d1a81bc}, !- Handle
  ZONE SURFACE NORTH,                     !- Name
  Wall,                                   !- Surface Type
  {c31bd671-d6b5-4c34-aa86-a1637cb2e7fd}, !- Construction Name
  {3c320e2c-5ce4-4807-974f-c51501a17d47}, !- Space Name
  Outdoors,                               !- Outside Boundary Condition
  ,                                       !- Outside Boundary Condition Object
  SunExposed,                             !- Sun Exposure
  WindExposed,                            !- Wind Exposure
  0.5,                                    !- View Factor to Ground
  ,                                       !- Number of Vertices
  14, 14, 3,                              !- X,Y,Z Vertex 1 {m}
  14, 14, 0,                              !- X,Y,Z Vertex 2 {m}
  0, 14, 0,                               !- X,Y,Z Vertex 3 {m}
  0, 14, 3;                               !- X,Y,Z Vertex 4 {m}

OS:Surface,
  {79c86eb9-b054-4883-a128-8f8300643968}, !- Handle
  ZONE SURFACE EAST,                      !- Name
  Wall,                                   !- Surface Type
  {c31bd671-d6b5-4c34-aa86-a1637cb2e7fd}, !- Construction Name
  {3c320e2c-5ce4-4807-974f-c51501a17d47}, !- Space Name
  Outdoors,                               !- Outside Boundary Condition
  ,                                       !- Outside Boundary Condition Object
  SunExposed,                             !- Sun Exposure
  WindExposed,                            !- Wind Exposure
  0.5,                                    !- View Factor to Ground
  ,                                       !- Number of Vertices
  14, 0, 3,                               !- X,Y,Z Vertex 1 {m}
  14, 0, 0,                               !- X,Y,Z Vertex 2 {m}
  14, 14, 0,                              !- X,Y,Z Vertex 3 {m}
  14, 14, 3;                              !- X,Y,Z Vertex 4 {m}

OS:Surface,
  {8b19d412-f672-4712-b378-3dbe11eae2d4}, !- Handle
  ZONE SURFACE WEST,                      !- Name
  Wall,                                   !- Surface Type
  {c31bd671-d6b5-4c34-aa86-a1637cb2e7fd}, !- Construction Name
  {3c320e2c-5ce4-4807-974f-c51501a17d47}, !- Space Name
  Outdoors,                               !- Outside Boundary Condition
  ,                                       !- Outside Boundary Condition Object
  SunExposed,                             !- Sun Exposure
  WindExposed,                            !- Wind Exposure
  0.5,                                    !- View Factor to Ground
  ,                                       !- Number of Vertices
  0, 14, 3,                               !- X,Y,Z Vertex 1 {m}
  0, 14, 0,                               !- X,Y,Z Vertex 2 {m}
  0, 0, 0,                                !- X,Y,Z Vertex 3 {m}
  0, 0, 3;                                !- X,Y,Z Vertex 4 {m}

OS:Surface,
  {cf86fd9b-47f1-4bde-80f8-75beb0fe7d69}, !- Handle
  ZONE SURFACE SOUTH,                     !- Name
  Wall,                                   !- Surface Type
  {c31bd671-d6b5-4c34-aa86-a1637cb2e7fd}, !- Construction Name
  {3c320e2c-5ce4-4807-974f-c51501a17d47}, !- Space Name
  Outdoors,                               !- Outside Boundary Condition
  ,                                       !- Outside Boundary Condition Object
  SunExposed,                             !- Sun Exposure
  WindExposed,                            !- Wind Exposure
  0.5,                                    !- View Factor to Ground
  ,                                       !- Number of Vertices
  0, 0, 3,                                !- X,Y,Z Vertex 1 {m}
  0, 0, 0,                                !- X,Y,Z Vertex 2 {m}
  14, 0, 0,                               !- X,Y,Z Vertex 3 {m}
  14, 0, 3;                               !- X,Y,Z Vertex 4 {m}

OS:Surface,
  {76fe873a-cb34-4a08-99ee-bbf2ba988dda}, !- Handle
  ZONE SURFACE ROOF,                      !- Name
  RoofCeiling,                            !- Surface Type
  {c31bd671-d6b5-4c34-aa86-a1637cb2e7fd}, !- Construction Name
  {3c320e2c-5ce4-4807-974f-c51501a17d47}, !- Space Name
  Outdoors,                               !- Outside Boundary Condition
  ,                                       !- Outside Boundary Condition Object
  SunExposed,                             !- Sun Exposure
  WindExposed,                            !- Wind Exposure
  0,                                      !- View Factor to Ground
  ,                                       !- Number of Vertices
  14, 0, 3,                               !- X,Y,Z Vertex 1 {m}
  14, 14, 3,                              !- X,Y,Z Vertex 2 {m}
  0, 14, 3,                               !- X,Y,Z Vertex 3 {m}
  0, 0, 3;                                !- X,Y,Z Vertex 4 {m}

OS:OtherEquipment,
  {a3c341d4-6cd8-4295-bdea-70d4df7adbc7}, !- Handle
  CE_sens_mid2_inst,                      !- Name
  {c15d378a-857a-472c-a5ed-f804ce68a23c}, !- Other Equipment Definition Name
  {3c320e2c-5ce4-4807-974f-c51501a17d47}, !- Space or SpaceType Name
  {47f3d722-600a-404d-af45-588f114369f2}; !- Schedule Name

OS:OtherEquipment:Definition,
  {c15d378a-857a-472c-a5ed-f804ce68a23c}, !- Handle
  CE_sens_mid,                            !- Name
  EquipmentLevel,                         !- Design Level Calculation Method
  18758,                                  !- Design Level {W}
  ,                                       !- Watts per Space Floor Area {W/m2}
  ;                                       !- Watts per Person {W/Person}

OS:Schedule:Ruleset,
  {47f3d722-600a-404d-af45-588f114369f2}, !- Handle
  CE500_sens_mid2,                        !- Name
  {f8eeea55-3ac9-4abc-a4f3-8cd894198731}, !- Schedule Type Limits Name
  {72921b3f-7146-4115-9a55-24c89354df05}; !- Default Day Schedule Name

OS:Schedule:Day,
  {72921b3f-7146-4115-9a55-24c89354df05}, !- Handle
  Schedule Day 39,                        !- Name
  {f8eeea55-3ac9-4abc-a4f3-8cd894198731}, !- Schedule Type Limits Name
  ,                                       !- Interpolate to Timestep
  24,                                     !- Hour 1
  0,                                      !- Minute 1
  0;                                      !- Value Until Time 1

OS:Schedule:Rule,
  {e9deb250-6444-4d25-9087-5f43e117a115}, !- Handle
  Schedule Rule 21,                       !- Name
  {47f3d722-600a-404d-af45-588f114369f2}, !- Schedule Ruleset Name
  0,                                      !- Rule Order
  {10cdf825-2d9e-4472-b6f7-fc5d38e31b5a}, !- Day Schedule Name
  Yes,                                    !- Apply Sunday
  Yes,                                    !- Apply Monday
  Yes,                                    !- Apply Tuesday
  Yes,                                    !- Apply Wednesday
  Yes,                                    !- Apply Thursday
  Yes,                                    !- Apply Friday
  Yes,                                    !- Apply Saturday
  ,                                       !- Apply Holiday
  DateRange,                              !- Date Specification Type
  10,                                     !- Start Month
  19,                                     !- Start Day
  11,                                     !- End Month
  5;                                      !- End Day

OS:Schedule:Rule,
  {a1978dab-5b67-4a78-b6b1-0fa54df1060b}, !- Handle
  Schedule Rule 22,                       !- Name
  {47f3d722-600a-404d-af45-588f114369f2}, !- Schedule Ruleset Name
  1,                                      !- Rule Order
  {982fe4fa-4c0d-4ae3-aa6e-35d6d709ea06}, !- Day Schedule Name
  Yes,                                    !- Apply Sunday
  Yes,                                    !- Apply Monday
  Yes,                                    !- Apply Tuesday
  Yes,                                    !- Apply Wednesday
  Yes,                                    !- Apply Thursday
  Yes,                                    !- Apply Friday
  Yes,                                    !- Apply Saturday
  ,                                       !- Apply Holiday
  DateRange,                              !- Date Specification Type
  10,                                     !- Start Month
  12,                                     !- Start Day
  10,                                     !- End Month
  18;                                     !- End Day

OS:Schedule:Rule,
  {d0590aee-5896-4453-b762-8d908253d29c}, !- Handle
  Schedule Rule 23,                       !- Name
  {47f3d722-600a-404d-af45-588f114369f2}, !- Schedule Ruleset Name
  2,                                      !- Rule Order
  {e442534e-8d6a-4406-8d69-1123ff1d8606}, !- Day Schedule Name
  Yes,                                    !- Apply Sunday
  Yes,                                    !- Apply Monday
  Yes,                                    !- Apply Tuesday
  Yes,                                    !- Apply Wednesday
  Yes,                                    !- Apply Thursday
  Yes,                                    !- Apply Friday
  Yes,                                    !- Apply Saturday
  ,                                       !- Apply Holiday
  DateRange,                              !- Date Specification Type
  4,                                      !- Start Month
  21,                                     !- Start Day
  10,                                     !- End Month
  11;                                     !- End Day

OS:Schedule:Rule,
  {f533f4c3-20dc-43d4-a632-b43574907f23}, !- Handle
  Schedule Rule 24,                       !- Name
  {47f3d722-600a-404d-af45-588f114369f2}, !- Schedule Ruleset Name
  3,                                      !- Rule Order
  {a9f743dc-1119-4de3-b79f-14889bf6e5ca}, !- Day Schedule Name
  Yes,                                    !- Apply Sunday
  Yes,                                    !- Apply Monday
  Yes,                                    !- Apply Tuesday
  Yes,                                    !- Apply Wednesday
  Yes,                                    !- Apply Thursday
  Yes,                                    !- Apply Friday
  Yes,                                    !- Apply Saturday
  ,                                       !- Apply Holiday
  DateRange,                              !- Date Specification Type
  4,                                      !- Start Month
  12,                                     !- Start Day
  4,                                      !- End Month
  20;                                     !- End Day

OS:Schedule:Rule,
  {b4ade379-b314-45ae-9ace-a4183df48ae5}, !- Handle
  Schedule Rule 25,                       !- Name
  {47f3d722-600a-404d-af45-588f114369f2}, !- Schedule Ruleset Name
  4,                                      !- Rule Order
  {89ea082e-aeda-4621-a2d6-1a6eb3ce7d2e}, !- Day Schedule Name
  Yes,                                    !- Apply Sunday
  Yes,                                    !- Apply Monday
  Yes,                                    !- Apply Tuesday
  Yes,                                    !- Apply Wednesday
  Yes,                                    !- Apply Thursday
  Yes,                                    !- Apply Friday
  Yes,                                    !- Apply Saturday
  ,                                       !- Apply Holiday